xflr5 v6.57

 Calculated polar for: KC-135 Winglet (supercritical Whitcomb)

 1 1 Reynolds number fixed          Mach number fixed         

 xtrf =   1.000 (top)        1.000 (bottom)
 Mach =   0.000     Re =     9.000 e 6     Ncrit =   9.000

  alpha     CL        CD       CDp       Cm    Top Xtr Bot Xtr   Cpmin    Chinge    XCp    
 ------- -------- --------- --------- -------- ------- ------- -------- --------- ---------
 -17.000  -0.2878   0.09664   0.09611  -0.0302  0.9996  0.0021  -4.1449   0.0000   0.0000   0.0000   0.1417
 -16.500  -0.2710   0.09150   0.09097  -0.0336  0.9992  0.0022  -3.9203   0.0000   0.0000   0.0000   0.1233
 -16.000  -0.6165   0.17003   0.16937   0.0073  1.0000  0.0021  -6.5780   0.0000   0.0000   0.0000   0.2500
 -15.500  -0.6042   0.16378   0.16313   0.0044  1.0000  0.0021  -6.3403   0.0000   0.0000   0.0000   0.2459
 -15.000  -0.5907   0.15759   0.15694   0.0014  1.0000  0.0021  -6.0587   0.0000   0.0000   0.0000   0.2416
 -14.500  -0.5773   0.15144   0.15080  -0.0015  1.0000  0.0021  -5.7726   0.0000   0.0000   0.0000   0.2372
 -14.000  -0.5642   0.14532   0.14469  -0.0043  1.0000  0.0021  -5.4920   0.0000   0.0000   0.0000   0.2327
 -13.500  -0.5517   0.13928   0.13865  -0.0070  1.0000  0.0021  -5.2241   0.0000   0.0000   0.0000   0.2282
 -13.000  -0.5390   0.13314   0.13251  -0.0098  1.0000  0.0021  -4.9637   0.0000   0.0000   0.0000   0.2232
 -12.500  -0.5262   0.12693   0.12631  -0.0126  1.0000  0.0021  -4.7128   0.0000   0.0000   0.0000   0.2179
 -12.000  -0.5138   0.12077   0.12016  -0.0154  1.0000  0.0021  -4.4716   0.0000   0.0000   0.0000   0.2123
 -11.500  -0.5015   0.11463   0.11402  -0.0183  1.0000  0.0022  -4.2396   0.0000   0.0000   0.0000   0.2063
 -11.000  -0.4906   0.10766   0.10705  -0.0215  1.0000  0.0023  -4.1314   0.0000   0.0000   0.0000   0.1993
 -10.500  -0.4787   0.10149   0.10089  -0.0245  1.0000  0.0024  -3.9236   0.0000   0.0000   0.0000   0.1924
 -10.000  -0.4665   0.09522   0.09463  -0.0278  1.0000  0.0025  -3.7252   0.0000   0.0000   0.0000   0.1845
  -9.500  -0.4562   0.08902   0.08844  -0.0309  0.9998  0.0026  -3.5513   0.0000   0.0000   0.0000   0.1768
  -9.000  -0.4401   0.08210   0.08153  -0.0363  0.9958  0.0028  -3.3748   0.0000   0.0000   0.0000   0.1624
  -8.500  -0.4211   0.07455   0.07394  -0.0438  0.9657  0.0030  -3.2216   0.0000   0.0000   0.0000   0.1414
  -8.000  -0.3928   0.06463   0.06396  -0.0589  0.9390  0.0033  -3.1359   0.0000   0.0000   0.0000   0.0958
  -7.500  -0.3512   0.05305   0.05217  -0.0777  0.9084  0.0038  -3.0555   0.0000   0.0000   0.0000   0.0249
  -7.000  -0.3056   0.04658   0.04555  -0.0849  0.8911  0.0045  -2.7081   0.0000   0.0000   0.0000  -0.0318
  -6.500  -0.2564   0.03972   0.03848  -0.0914  0.8729  0.0047  -2.4155   0.0000   0.0000   0.0000  -0.1109
  -6.000  -0.2016   0.03268   0.03119  -0.0971  0.8620  0.0048  -2.3597   0.0000   0.0000   0.0000  -0.2368
  -5.500  -0.1423   0.02640   0.02462  -0.1017  0.8491  0.0048  -2.3102   0.0000   0.0000   0.0000  -0.4712
  -5.000  -0.0799   0.02124   0.01915  -0.1053  0.8373  0.0049  -2.2124   0.0000   0.0000   0.0000  -1.0805
  -4.500  -0.0160   0.01706   0.01460  -0.1083  0.8078  0.0049  -2.0878   0.0000   0.0000   0.0000  -6.5869
  -4.000   0.0489   0.01377   0.01092  -0.1109  0.7736  0.0049  -1.9238   0.0000   0.0000   0.0000   2.5360
  -3.500   0.1141   0.01105   0.00794  -0.1131  0.7686  0.0049  -1.7352   0.0000   0.0000   0.0000   1.2475
  -3.000   0.1767   0.00927   0.00576  -0.1147  0.7073  0.0049  -1.5116   0.0000   0.0000   0.0000   0.9025
  -2.500   0.2381   0.00794   0.00414  -0.1159  0.6502  0.0050  -1.2609   0.0000   0.0000   0.0000   0.7389
   1.000   0.6510   0.00742   0.00140  -0.1221  0.0655  0.0059  -1.0171   0.0000   0.0000   0.0000   0.4363
   1.500   0.7075   0.00766   0.00156  -0.1225  0.0421  0.0240  -1.1849   0.0000   0.0000   0.0000   0.4214
   2.000   0.7737   0.00684   0.00181  -0.1258  0.0367  0.6161  -1.3737   0.0000   0.0000   0.0000   0.4105
   2.500   0.8299   0.00710   0.00203  -0.1260  0.0238  0.6426  -1.5576   0.0000   0.0000   0.0000   0.3993
   3.000   0.8857   0.00739   0.00228  -0.1261  0.0118  0.6618  -1.8611   0.0000   0.0000   0.0000   0.3895
   3.500   0.9417   0.00760   0.00248  -0.1263  0.0114  0.6712  -2.2162   0.0000   0.0000   0.0000   0.3807
   4.000   0.9974   0.00783   0.00269  -0.1264  0.0114  0.6809  -2.5907   0.0000   0.0000   0.0000   0.3729
   4.500   1.0533   0.00802   0.00290  -0.1265  0.0124  0.6956  -2.9729   0.0000   0.0000   0.0000   0.3657
   5.500   1.1634   0.00861   0.00354  -0.1264  0.0122  0.7203  -3.7810   0.0000   0.0000   0.0000   0.3531
   6.000   1.2180   0.00889   0.00380  -0.1263  0.0119  0.7242  -4.2771   0.0000   0.0000   0.0000   0.3476
   6.500   1.2723   0.00923   0.00417  -0.1261  0.0119  0.7295  -4.7306   0.0000   0.0000   0.0000   0.3424
   7.000   1.3262   0.00958   0.00453  -0.1259  0.0112  0.7403  -5.2391   0.0000   0.0000   0.0000   0.3376
   7.500   1.3796   0.00996   0.00494  -0.1256  0.0106  0.7481  -6.0284   0.0000   0.0000   0.0000   0.3330
   8.000   1.4284   0.01105   0.00594  -0.1246  0.0021  0.7647  -6.9603   0.0000   0.0000   0.0000   0.3285
   8.500   1.4799   0.01163   0.00653  -0.1239  0.0014  0.7737  -7.9862   0.0000   0.0000   0.0000   0.3243
   9.000   1.5308   0.01225   0.00719  -0.1232  0.0009  0.7840  -9.0671   0.0000   0.0000   0.0000   0.3202
   9.500   1.5802   0.01303   0.00803  -0.1222  0.0002  0.7960  -10.1941   0.0000   0.0000   0.0000   0.3163
  10.000   1.6295   0.01373   0.00878  -0.1213  0.0001  0.8110  -11.3791   0.0000   0.0000   0.0000   0.3126
  10.500   1.6780   0.01446   0.00956  -0.1202  0.0000  0.8227  -12.6127   0.0000   0.0000   0.0000   0.3089
  11.000   1.7255   0.01524   0.01039  -0.1189  0.0000  0.8290  -13.8910   0.0000   0.0000   0.0000   0.3053
  11.500   1.7719   0.01606   0.01129  -0.1175  0.0000  0.8421  -15.2092   0.0000   0.0000   0.0000   0.3018
  12.500   1.8605   0.01789   0.01327  -0.1140  0.0000  0.8773  -17.9536   0.0000   0.0000   0.0000   0.2949
  13.000   1.9011   0.01879   0.01435  -0.1116  0.0001  0.9432  -19.3521   0.0000   0.0000   0.0000   0.2914
  13.500   1.9390   0.01980   0.01546  -0.1087  0.0001  1.0000  -20.7580   0.0000   0.0000   0.0000   0.2878
  14.000   1.9758   0.02099   0.01672  -0.1058  0.0001  1.0000  -22.1894   0.0000   0.0000   0.0000   0.2843
  14.500   2.0089   0.02229   0.01810  -0.1024  0.0002  1.0000  -23.6038   0.0000   0.0000   0.0000   0.2806
  15.000   2.0334   0.02373   0.01963  -0.0974  0.0002  1.0000  -24.9125   0.0000   0.0000   0.0000   0.2766
  15.500   2.0475   0.02536   0.02137  -0.0908  0.0002  1.0000  -26.0735   0.0000   0.0000   0.0000   0.2720
  16.000   2.0561   0.02731   0.02344  -0.0838  0.0002  1.0000  -27.1594   0.0000   0.0000   0.0000   0.2674
  16.500   2.0642   0.02971   0.02596  -0.0776  0.0002  1.0000  -28.2491   0.0000   0.0000   0.0000   0.2633
  17.000   2.0678   0.03259   0.02898  -0.0718  0.0002  1.0000  -29.2681   0.0000   0.0000   0.0000   0.2593
  17.500   2.0683   0.03614   0.03269  -0.0667  0.0002  1.0000  -30.2324   0.0000   0.0000   0.0000   0.2557
  18.000   2.0629   0.04051   0.03721  -0.0622  0.0002  1.0000  -31.0819   0.0000   0.0000   0.0000   0.2524
  18.500   2.0514   0.04597   0.04283  -0.0586  0.0002  1.0000  -31.8024   0.0000   0.0000   0.0000   0.2496
  19.000   2.0334   0.05284   0.04989  -0.0565  0.0002  1.0000  -32.3695   0.0000   0.0000   0.0000   0.2475
  19.500   2.0070   0.06161   0.05885  -0.0563  0.0002  1.0000  -32.7206   0.0000   0.0000   0.0000   0.2464
  20.000   1.9620   0.07455   0.07203  -0.0596  0.0002  1.0000  -32.5831   0.0000   0.0000   0.0000   0.2473
  20.500   1.8880   0.09472   0.09251  -0.0689  0.0002  1.0000  -31.6022   0.0000   0.0000   0.0000   0.2519
  21.000   1.2782   0.25818   0.25751  -0.1731  0.0000  1.0000  -11.5661   0.0000   0.0000   0.0000   0.3553
  21.500   1.2931   0.26321   0.26254  -0.1767  0.0000  1.0000  -12.2239   0.0000   0.0000   0.0000   0.3551
  22.500   1.2887   0.29188   0.29134  -0.1976  0.0000  1.0000  -10.6318   0.0000   0.0000   0.0000   0.3709
  29.500   1.4317   0.41460   0.41430  -0.2832  0.0002  1.0000  -9.3295   0.0000   0.0000   0.0000   0.3988
  30.000   1.4415   0.42109   0.42080  -0.2885  0.0002  1.0000  -9.5481   0.0000   0.0000   0.0000   0.3994


