xflr5 v6.57

 Calculated polar for: LOCKHEED-GEORGIA SUPERCRITICAL AIRFOIL

 1 1 Reynolds number fixed          Mach number fixed         

 xtrf =   1.000 (top)        1.000 (bottom)
 Mach =   0.000     Re =     9.000 e 6     Ncrit =   9.000

  alpha     CL        CD       CDp       Cm    Top Xtr Bot Xtr   Cpmin    Chinge    XCp    
 ------- -------- --------- --------- -------- ------- ------- -------- --------- ---------
  -4.500  -0.3919   0.00642   0.00183  -0.0090  0.6686  0.0042  -4.2124   0.0000   0.0000   0.0000   0.2225
  -4.000  -0.3363   0.00624   0.00150  -0.0089  0.6231  0.0042  -3.6055   0.0000   0.0000   0.0000   0.2194
  -3.500  -0.2803   0.00616   0.00129  -0.0088  0.5740  0.0043  -3.0155   0.0000   0.0000   0.0000   0.2144
  -3.000  -0.2251   0.00622   0.00114  -0.0087  0.4871  0.0074  -2.4713   0.0000   0.0000   0.0000   0.2073
  -2.500  -0.1692   0.00625   0.00103  -0.0087  0.4214  0.0090  -1.9463   0.0000   0.0000   0.0000   0.1945
  -1.500  -0.0567   0.00631   0.00087  -0.0088  0.3223  0.0142  -1.1436   0.0000   0.0000   0.0000   0.0889
  -1.000  -0.0004   0.00627   0.00079  -0.0089  0.2820  0.0309  -0.8467   0.0000   0.0000   0.0000  -22.5114
  -0.500   0.0556   0.00621   0.00075  -0.0089  0.2505  0.0669  -0.5687   0.0000   0.0000   0.0000   0.4093
   0.000   0.1112   0.00607   0.00072  -0.0089  0.2228  0.1406  -0.5880   0.0000   0.0000   0.0000   0.3279
   0.500   0.1659   0.00566   0.00068  -0.0088  0.2133  0.3016  -0.6688   0.0000   0.0000   0.0000   0.3006
   1.000   0.2171   0.00487   0.00064  -0.0083  0.1936  0.6133  -0.7494   0.0000   0.0000   0.0000   0.2852
   1.500   0.2731   0.00471   0.00067  -0.0083  0.1876  0.6985  -0.8458   0.0000   0.0000   0.0000   0.2773
   2.000   0.3290   0.00473   0.00075  -0.0084  0.1678  0.7570  -0.9461   0.0000   0.0000   0.0000   0.2720
   2.500   0.3853   0.00468   0.00082  -0.0085  0.1591  0.8136  -1.0494   0.0000   0.0000   0.0000   0.2682
   3.000   0.4419   0.00471   0.00091  -0.0086  0.1550  0.8483  -1.1602   0.0000   0.0000   0.0000   0.2654
   3.500   0.4978   0.00487   0.00104  -0.0087  0.1366  0.8768  -1.2829   0.0000   0.0000   0.0000   0.2630
   4.000   0.5543   0.00494   0.00115  -0.0088  0.1290  0.8997  -1.4097   0.0000   0.0000   0.0000   0.2611
   4.500   0.6104   0.00503   0.00127  -0.0089  0.1265  0.9207  -1.5393   0.0000   0.0000   0.0000   0.2594
   5.000   0.6653   0.00528   0.00145  -0.0088  0.1109  0.9382  -1.6698   0.0000   0.0000   0.0000   0.2576
   5.500   0.7213   0.00544   0.00161  -0.0089  0.0996  0.9497  -1.8243   0.0000   0.0000   0.0000   0.2563
   6.000   0.7753   0.00572   0.00185  -0.0086  0.0911  0.9673  -1.9798   0.0000   0.0000   0.0000   0.2546
   6.500   0.8297   0.00598   0.00206  -0.0084  0.0829  0.9746  -2.1610   0.0000   0.0000   0.0000   0.2532
   7.000   0.8879   0.00632   0.00233  -0.0093  0.0731  0.9843  -2.4610   0.0000   0.0000   0.0000   0.2529
   7.500   0.9480   0.00657   0.00256  -0.0105  0.0668  0.9908  -2.8150   0.0000   0.0000   0.0000   0.2529
   8.000   1.0061   0.00703   0.00292  -0.0114  0.0524  0.9952  -3.1813   0.0000   0.0000   0.0000   0.2526
   8.500   1.0623   0.00764   0.00341  -0.0120  0.0361  0.9978  -3.5694   0.0000   0.0000   0.0000   0.2519
   9.000   1.1186   0.00816   0.00387  -0.0126  0.0265  0.9991  -4.0547   0.0000   0.0000   0.0000   0.2512
   9.500   1.1741   0.00873   0.00438  -0.0131  0.0206  0.9998  -4.5620   0.0000   0.0000   0.0000   0.2504
  10.000   1.2241   0.00918   0.00481  -0.0123  0.0164  1.0000  -5.0681   0.0000   0.0000   0.0000   0.2486
  10.500   1.2702   0.00985   0.00541  -0.0109  0.0101  1.0000  -5.5740   0.0000   0.0000   0.0000   0.2463
  11.000   1.3207   0.01029   0.00586  -0.0103  0.0096  1.0000  -6.2149   0.0000   0.0000   0.0000   0.2448
  11.500   1.3704   0.01087   0.00644  -0.0097  0.0084  1.0000  -6.9300   0.0000   0.0000   0.0000   0.2433
  12.000   1.4188   0.01160   0.00714  -0.0090  0.0063  1.0000  -7.6662   0.0000   0.0000   0.0000   0.2417
  12.500   1.4678   0.01222   0.00776  -0.0084  0.0046  1.0000  -8.4389   0.0000   0.0000   0.0000   0.2402
  13.000   1.5163   0.01284   0.00841  -0.0077  0.0043  1.0000  -9.2442   0.0000   0.0000   0.0000   0.2387
  13.500   1.5640   0.01350   0.00909  -0.0070  0.0042  1.0000  -10.0738   0.0000   0.0000   0.0000   0.2371
  14.000   1.6105   0.01420   0.00981  -0.0062  0.0042  1.0000  -10.9247   0.0000   0.0000   0.0000   0.2355
  14.500   1.6556   0.01496   0.01060  -0.0052  0.0041  1.0000  -11.7939   0.0000   0.0000   0.0000   0.2338
  15.000   1.6990   0.01578   0.01146  -0.0040  0.0040  1.0000  -12.6761   0.0000   0.0000   0.0000   0.2320
  15.500   1.7399   0.01670   0.01242  -0.0025  0.0038  1.0000  -13.5647   0.0000   0.0000   0.0000   0.2301
  16.000   1.7755   0.01790   0.01365  -0.0003  0.0032  1.0000  -14.4278   0.0000   0.0000   0.0000   0.2278
  16.500   1.8040   0.01938   0.01517   0.0028  0.0024  1.0000  -15.2371   0.0000   0.0000   0.0000   0.2250
  17.000   1.8209   0.02084   0.01669   0.0079  0.0018  1.0000  -15.9466   0.0000   0.0000   0.0000   0.2212
  17.500   1.8378   0.02253   0.01845   0.0120  0.0013  1.0000  -16.6672   0.0000   0.0000   0.0000   0.2179
  18.000   1.8526   0.02462   0.02063   0.0155  0.0011  1.0000  -17.3720   0.0000   0.0000   0.0000   0.2149
  18.500   1.8626   0.02729   0.02341   0.0185  0.0010  1.0000  -18.0331   0.0000   0.0000   0.0000   0.2122
  19.000   1.8685   0.03082   0.02704   0.0204  0.0010  1.0000  -18.6475   0.0000   0.0000   0.0000   0.2099
  19.500   1.8663   0.03556   0.03192   0.0212  0.0010  1.0000  -19.1593   0.0000   0.0000   0.0000   0.2082
  20.000   1.8549   0.04221   0.03872   0.0201  0.0010  1.0000  -19.5385   0.0000   0.0000   0.0000   0.2073
  20.500   1.8255   0.05200   0.04871   0.0166  0.0010  1.0000  -19.6527   0.0000   0.0000   0.0000   0.2075
  21.000   1.7577   0.06886   0.06587   0.0084  0.0010  1.0000  -19.1725   0.0000   0.0000   0.0000   0.2103
  21.500   1.5532   0.10831   0.10588  -0.0111  0.0010  1.0000  -16.5595   0.0000   0.0000   0.0000   0.2208
  22.000   1.3542   0.15103   0.14911  -0.0344  0.0012  1.0000  -13.7129   0.0000   0.0000   0.0000   0.2383
  22.500   1.2789   0.17386   0.17218  -0.0481  0.0015  1.0000  -12.6481   0.0000   0.0000   0.0000   0.2497
  23.000   1.2770   0.18197   0.18034  -0.0534  0.0011  1.0000  -12.8486   0.0000   0.0000   0.0000   0.2525
  23.500   1.2515   0.19589   0.19438  -0.0625  0.0011  1.0000  -12.5337   0.0000   0.0000   0.0000   0.2596
  24.000   1.1830   0.22223   0.22099  -0.0798  0.0011  1.0000  -11.0786   0.0000   0.0000   0.0000   0.2771
  24.500   1.1874   0.22979   0.22858  -0.0854  0.0010  1.0000  -11.2723   0.0000   0.0000   0.0000   0.2802
  25.000   1.1955   0.23634   0.23517  -0.0906  0.0010  1.0000  -11.5563   0.0000   0.0000   0.0000   0.2826
  25.500   1.2034   0.24297   0.24182  -0.0959  0.0010  1.0000  -11.8289   0.0000   0.0000   0.0000   0.2850
  26.000   1.1817   0.25972   0.25871  -0.1074  0.0010  1.0000  -11.1293   0.0000   0.0000   0.0000   0.2957
  26.500   1.1918   0.26581   0.26482  -0.1126  0.0010  1.0000  -11.4254   0.0000   0.0000   0.0000   0.2978
  27.000   1.1767   0.28189   0.28103  -0.1235  0.0010  1.0000  -10.7088   0.0000   0.0000   0.0000   0.3079
  27.500   1.1869   0.28803   0.28719  -0.1289  0.0010  1.0000  -10.9682   0.0000   0.0000   0.0000   0.3099
  28.000   1.1969   0.29413   0.29331  -0.1344  0.0010  1.0000  -11.2217   0.0000   0.0000   0.0000   0.3120
  28.500   1.1757   0.31644   0.31581  -0.1479  0.0009  1.0000  -9.6727   0.0000   0.0000   0.0000   0.3263
  29.000   1.1889   0.32080   0.32017  -0.1527  0.0009  1.0000  -10.0708   0.0000   0.0000   0.0000   0.3270
  29.500   1.2016   0.32531   0.32468  -0.1576  0.0009  1.0000  -10.4473   0.0000   0.0000   0.0000   0.3278


