xflr5 v6.57

 Calculated polar for: NASA SC(2)-0614 AIRFOIL

 1 1 Reynolds number fixed          Mach number fixed         

 xtrf =   1.000 (top)        1.000 (bottom)
 Mach =   0.000     Re =     9.000 e 6     Ncrit =   9.000

  alpha     CL        CD       CDp       Cm    Top Xtr Bot Xtr   Cpmin    Chinge    XCp    
 ------- -------- --------- --------- -------- ------- ------- -------- --------- ---------
 -30.000  -1.0861   0.28738   0.28671   0.1035  1.0000  0.0094  -6.1448   0.0000   0.0000   0.0000   0.2873
 -29.500  -1.0693   0.28412   0.28344   0.0987  1.0000  0.0095  -5.9367   0.0000   0.0000   0.0000   0.2862
 -29.000  -1.0523   0.28074   0.28005   0.0940  1.0000  0.0096  -5.7340   0.0000   0.0000   0.0000   0.2850
 -28.500  -1.0350   0.27726   0.27657   0.0892  1.0000  0.0097  -5.5355   0.0000   0.0000   0.0000   0.2837
 -28.000  -1.1340   0.23692   0.23606   0.0615  1.0000  0.0101  -8.0805   0.0000   0.0000   0.0000   0.2491
 -27.000  -1.3958   0.16485   0.16319   0.0041  1.0000  0.0102  -11.8608   0.0000   0.0000   0.0000   0.1993
 -26.500  -1.5588   0.12958   0.12747  -0.0213  1.0000  0.0102  -13.4891   0.0000   0.0000   0.0000   0.1847
 -26.000  -1.6509   0.10854   0.10613  -0.0344  1.0000  0.0102  -14.2007   0.0000   0.0000   0.0000   0.1795
 -25.500  -1.7117   0.09320   0.09056  -0.0430  1.0000  0.0102  -14.5590   0.0000   0.0000   0.0000   0.1771
 -25.000  -1.7526   0.08126   0.07844  -0.0490  1.0000  0.0102  -14.7114   0.0000   0.0000   0.0000   0.1760
 -24.500  -1.7936   0.06982   0.06678  -0.0542  1.0000  0.0115  -14.8632   0.0000   0.0000   0.0000   0.1755
 -24.000  -1.8099   0.06194   0.05878  -0.0573  1.0000  0.0125  -14.7873   0.0000   0.0000   0.0000   0.1757
 -23.500  -1.8166   0.05552   0.05225  -0.0596  1.0000  0.0134  -14.6258   0.0000   0.0000   0.0000   0.1761
 -23.000  -1.8172   0.04997   0.04662  -0.0612  1.0000  0.0142  -14.4139   0.0000   0.0000   0.0000   0.1767
 -22.500  -1.8142   0.04501   0.04158  -0.0624  1.0000  0.0151  -14.1717   0.0000   0.0000   0.0000   0.1775
 -22.000  -1.8073   0.04062   0.03714  -0.0632  1.0000  0.0159  -13.8991   0.0000   0.0000   0.0000   0.1783
 -21.500  -1.7959   0.03682   0.03329  -0.0637  1.0000  0.0167  -13.5942   0.0000   0.0000   0.0000   0.1792
 -21.000  -1.7797   0.03355   0.02999  -0.0640  1.0000  0.0176  -13.2570   0.0000   0.0000   0.0000   0.1801
 -20.500  -1.7592   0.03075   0.02716  -0.0641  1.0000  0.0182  -12.8929   0.0000   0.0000   0.0000   0.1809
 -20.000  -1.7351   0.02838   0.02475  -0.0640  1.0000  0.0186  -12.5089   0.0000   0.0000   0.0000   0.1816
 -19.500  -1.7096   0.02622   0.02255  -0.0638  1.0000  0.0188  -12.1205   0.0000   0.0000   0.0000   0.1824
 -19.000  -1.6816   0.02428   0.02057  -0.0635  1.0000  0.0190  -11.7229   0.0000   0.0000   0.0000   0.1832
 -18.500  -1.6519   0.02248   0.01873  -0.0631  1.0000  0.0191  -11.3206   0.0000   0.0000   0.0000   0.1839
 -18.000  -1.6206   0.02085   0.01706  -0.0627  1.0000  0.0192  -10.9141   0.0000   0.0000   0.0000   0.1845
 -17.500  -1.5894   0.01935   0.01552  -0.0618  1.0000  0.0193  -10.5132   0.0000   0.0000   0.0000   0.1854
 -17.000  -1.5733   0.01799   0.01412  -0.0579  0.9998  0.0194  -10.1904   0.0000   0.0000   0.0000   0.1886
 -16.500  -1.5250   0.01669   0.01280  -0.0598  0.9985  0.0195  -9.7169   0.0000   0.0000   0.0000   0.1872
 -16.000  -1.4710   0.01555   0.01164  -0.0624  0.9967  0.0196  -9.2259   0.0000   0.0000   0.0000   0.1850
 -15.500  -1.4137   0.01451   0.01058  -0.0654  0.9948  0.0196  -8.7299   0.0000   0.0000   0.0000   0.1821
 -15.000  -1.3540   0.01356   0.00962  -0.0686  0.9925  0.0197  -8.2338   0.0000   0.0000   0.0000   0.1786
 -14.500  -1.2936   0.01271   0.00875  -0.0717  0.9893  0.0197  -7.7461   0.0000   0.0000   0.0000   0.1747
 -14.000  -1.2358   0.01193   0.00797  -0.0740  0.9844  0.0198  -7.2810   0.0000   0.0000   0.0000   0.1710
 -13.500  -1.1762   0.01124   0.00725  -0.0765  0.9790  0.0198  -6.8201   0.0000   0.0000   0.0000   0.1667
 -13.000  -1.1167   0.01063   0.00663  -0.0786  0.9732  0.0199  -6.3723   0.0000   0.0000   0.0000   0.1620
 -12.500  -1.0578   0.01013   0.00611  -0.0803  0.9666  0.0200  -5.9525   0.0000   0.0000   0.0000   0.1571
 -12.000  -0.9985   0.00968   0.00565  -0.0820  0.9587  0.0200  -5.5777   0.0000   0.0000   0.0000   0.1516
 -11.500  -0.9386   0.00926   0.00522  -0.0836  0.9510  0.0201  -5.2103   0.0000   0.0000   0.0000   0.1452
 -11.000  -0.8779   0.00888   0.00482  -0.0853  0.9436  0.0201  -4.8510   0.0000   0.0000   0.0000   0.1376
 -10.500  -0.8171   0.00853   0.00446  -0.0870  0.9351  0.0202  -4.5002   0.0000   0.0000   0.0000   0.1288
 -10.000  -0.7559   0.00821   0.00413  -0.0887  0.9270  0.0203  -4.1575   0.0000   0.0000   0.0000   0.1184
  -9.500  -0.6942   0.00788   0.00381  -0.0904  0.9171  0.0239  -3.8291   0.0000   0.0000   0.0000   0.1058
  -9.000  -0.6318   0.00751   0.00348  -0.0923  0.9076  0.0278  -3.5062   0.0000   0.0000   0.0000   0.0902
  -8.500  -0.5696   0.00722   0.00319  -0.0941  0.8962  0.0300  -3.1906   0.0000   0.0000   0.0000   0.0713
  -8.000  -0.5070   0.00694   0.00294  -0.0958  0.8852  0.0358  -2.8870   0.0000   0.0000   0.0000   0.0474
  -7.500  -0.4444   0.00669   0.00270  -0.0976  0.8712  0.0400  -2.5936   0.0000   0.0000   0.0000   0.0167
  -7.000  -0.3820   0.00650   0.00251  -0.0992  0.8545  0.0452  -2.3116   0.0000   0.0000   0.0000  -0.0238
  -6.500  -0.3197   0.00635   0.00232  -0.1007  0.8284  0.0496  -2.0411   0.0000   0.0000   0.0000  -0.0799
  -6.000  -0.2578   0.00625   0.00217  -0.1021  0.8065  0.0503  -1.7815   0.0000   0.0000   0.0000  -0.1623
  -5.500  -0.1956   0.00614   0.00204  -0.1035  0.7885  0.0529  -1.5328   0.0000   0.0000   0.0000  -0.2978
  -5.000  -0.1329   0.00599   0.00191  -0.1051  0.7733  0.0588  -1.3371   0.0000   0.0000   0.0000  -0.5644
  -4.500  -0.0703   0.00589   0.00178  -0.1066  0.7464  0.0697  -1.1543   0.0000   0.0000   0.0000  -1.3049
  -4.000  -0.0081   0.00584   0.00169  -0.1080  0.7127  0.0787  -0.9909   0.0000   0.0000   0.0000  -13.3057
  -3.500   0.0546   0.00577   0.00160  -0.1095  0.6786  0.0988  -0.8458   0.0000   0.0000   0.0000   2.2899
  -3.000   0.1148   0.00624   0.00163  -0.1108  0.4968  0.1410  -0.7095   0.0000   0.0000   0.0000   1.2286
  -2.500   0.1755   0.00659   0.00167  -0.1122  0.3548  0.1798  -0.5932   0.0000   0.0000   0.0000   0.8955
  -2.000   0.2389   0.00662   0.00166  -0.1141  0.2793  0.2447  -0.4783   0.0000   0.0000   0.0000   0.7306
  -1.000   0.3648   0.00667   0.00170  -0.1174  0.1716  0.3749  -0.7275   0.0000   0.0000   0.0000   0.5718
  -0.500   0.4299   0.00654   0.00172  -0.1197  0.1272  0.4939  -0.8736   0.0000   0.0000   0.0000   0.5275
   0.000   0.4908   0.00669   0.00183  -0.1207  0.0894  0.5407  -1.0200   0.0000   0.0000   0.0000   0.4943
   0.500   0.5508   0.00684   0.00195  -0.1214  0.0737  0.5668  -1.1711   0.0000   0.0000   0.0000   0.4682
   1.000   0.6102   0.00701   0.00208  -0.1219  0.0648  0.5774  -1.3266   0.0000   0.0000   0.0000   0.4470
   1.500   0.6690   0.00723   0.00223  -0.1223  0.0544  0.5842  -1.5036   0.0000   0.0000   0.0000   0.4295
   2.000   0.7279   0.00741   0.00237  -0.1227  0.0492  0.5880  -1.7179   0.0000   0.0000   0.0000   0.4147
   3.000   0.8448   0.00784   0.00272  -0.1232  0.0408  0.5974  -2.2320   0.0000   0.0000   0.0000   0.3910
   3.500   0.9030   0.00803   0.00289  -0.1234  0.0394  0.6041  -2.5050   0.0000   0.0000   0.0000   0.3814
   4.000   0.9611   0.00824   0.00308  -0.1236  0.0390  0.6089  -2.7884   0.0000   0.0000   0.0000   0.3728
   4.500   1.0187   0.00846   0.00328  -0.1237  0.0377  0.6129  -3.0811   0.0000   0.0000   0.0000   0.3651
   5.500   1.1316   0.00912   0.00384  -0.1235  0.0273  0.6202  -3.6911   0.0000   0.0000   0.0000   0.3517
   6.000   1.1875   0.00949   0.00414  -0.1232  0.0237  0.6248  -4.0074   0.0000   0.0000   0.0000   0.3459
   6.500   1.2433   0.00981   0.00444  -0.1230  0.0197  0.6284  -4.3293   0.0000   0.0000   0.0000   0.3404
   7.500   1.3541   0.01044   0.00505  -0.1223  0.0195  0.6367  -5.0110   0.0000   0.0000   0.0000   0.3306
   8.000   1.4087   0.01079   0.00540  -0.1218  0.0195  0.6401  -5.3620   0.0000   0.0000   0.0000   0.3261
   8.500   1.4629   0.01114   0.00576  -0.1212  0.0194  0.6449  -5.7219   0.0000   0.0000   0.0000   0.3218
   9.000   1.5164   0.01152   0.00614  -0.1206  0.0194  0.6492  -6.0888   0.0000   0.0000   0.0000   0.3177
   9.500   1.5693   0.01192   0.00654  -0.1198  0.0193  0.6546  -6.4661   0.0000   0.0000   0.0000   0.3138
  10.000   1.6214   0.01234   0.00698  -0.1189  0.0193  0.6593  -6.8967   0.0000   0.0000   0.0000   0.3100
  10.500   1.6727   0.01277   0.00743  -0.1178  0.0192  0.6640  -7.3364   0.0000   0.0000   0.0000   0.3064
  11.000   1.7232   0.01324   0.00791  -0.1166  0.0192  0.6687  -7.7836   0.0000   0.0000   0.0000   0.3028
  11.500   1.7727   0.01372   0.00842  -0.1153  0.0191  0.6737  -8.2381   0.0000   0.0000   0.0000   0.2993
  12.000   1.8211   0.01424   0.00896  -0.1137  0.0191  0.6782  -8.6978   0.0000   0.0000   0.0000   0.2959
  12.500   1.8681   0.01478   0.00952  -0.1119  0.0190  0.6807  -9.1617   0.0000   0.0000   0.0000   0.2925
  13.000   1.9139   0.01535   0.01012  -0.1099  0.0190  0.6856  -9.6294   0.0000   0.0000   0.0000   0.2891
  13.500   1.9576   0.01595   0.01075  -0.1076  0.0189  0.6894  -10.0968   0.0000   0.0000   0.0000   0.2857
  14.000   1.9978   0.01658   0.01142  -0.1046  0.0188  0.6943  -10.5567   0.0000   0.0000   0.0000   0.2822
  14.500   2.0352   0.01725   0.01214  -0.1012  0.0188  0.6988  -11.0117   0.0000   0.0000   0.0000   0.2786
  15.000   2.0680   0.01799   0.01292  -0.0969  0.0187  0.7029  -11.4510   0.0000   0.0000   0.0000   0.2748
  15.500   2.0966   0.01885   0.01383  -0.0920  0.0186  0.7076  -11.8751   0.0000   0.0000   0.0000   0.2709
  16.000   2.1263   0.01981   0.01484  -0.0877  0.0185  0.7107  -12.3109   0.0000   0.0000   0.0000   0.2672
  16.500   2.1554   0.02087   0.01596  -0.0834  0.0183  0.7156  -12.7493   0.0000   0.0000   0.0000   0.2637
  17.000   2.1834   0.02205   0.01720  -0.0793  0.0181  0.7195  -13.1878   0.0000   0.0000   0.0000   0.2602
  17.500   2.2096   0.02338   0.01858  -0.0752  0.0178  0.7251  -13.6225   0.0000   0.0000   0.0000   0.2569
  18.000   2.2335   0.02492   0.02016  -0.0711  0.0173  0.7295  -14.0491   0.0000   0.0000   0.0000   0.2535
  18.500   2.2540   0.02676   0.02204  -0.0668  0.0166  0.7343  -14.4591   0.0000   0.0000   0.0000   0.2503
  19.000   2.2708   0.02894   0.02427  -0.0626  0.0157  0.7389  -14.8479   0.0000   0.0000   0.0000   0.2470
  19.500   2.2844   0.03148   0.02687  -0.0585  0.0149  0.7442  -15.2177   0.0000   0.0000   0.0000   0.2439
  20.000   2.2946   0.03439   0.02986  -0.0545  0.0141  0.7495  -15.5660   0.0000   0.0000   0.0000   0.2408
  20.500   2.3029   0.03766   0.03321  -0.0510  0.0132  0.7556  -15.9019   0.0000   0.0000   0.0000   0.2379
  21.000   2.3090   0.04135   0.03699  -0.0479  0.0124  0.7601  -16.2208   0.0000   0.0000   0.0000   0.2352
  21.500   2.3118   0.04562   0.04136  -0.0454  0.0114  0.7658  -16.5142   0.0000   0.0000   0.0000   0.2328
  23.000   2.2864   0.06404   0.06023  -0.0420  0.0098  0.7816  -17.1165   0.0000   0.0000   0.0000   0.2271
  23.500   2.2675   0.07228   0.06864  -0.0430  0.0097  0.7868  -17.2333   0.0000   0.0000   0.0000   0.2262
  24.500   1.3286   0.28928   0.28829  -0.2162  0.0095  0.7477  -5.3061   0.0000   0.0000   0.0000   0.3708
  25.000   1.3438   0.29338   0.29240  -0.2208  0.0095  0.7526  -5.4667   0.0000   0.0000   0.0000   0.3707
  25.500   1.3591   0.29727   0.29631  -0.2253  0.0094  0.7581  -5.6392   0.0000   0.0000   0.0000   0.3705
  26.000   1.3742   0.30100   0.30005  -0.2297  0.0094  0.7627  -5.8194   0.0000   0.0000   0.0000   0.3702
  26.500   1.3892   0.30462   0.30369  -0.2341  0.0093  0.7682  -6.0052   0.0000   0.0000   0.0000   0.3699
  27.000   1.4040   0.30812   0.30721  -0.2386  0.0093  0.7745  -6.1968   0.0000   0.0000   0.0000   0.3695
  27.500   1.4185   0.31149   0.31059  -0.2430  0.0092  0.7800  -6.3937   0.0000   0.0000   0.0000   0.3690
  28.000   1.4329   0.31476   0.31389  -0.2474  0.0091  0.7866  -6.5952   0.0000   0.0000   0.0000   0.3685
  28.500   1.4471   0.31792   0.31706  -0.2518  0.0091  0.7935  -6.8013   0.0000   0.0000   0.0000   0.3679
  29.000   1.4609   0.32097   0.32013  -0.2562  0.0090  0.8000  -7.0110   0.0000   0.0000   0.0000   0.3672
  29.500   1.4746   0.32393   0.32312  -0.2606  0.0089  0.8068  -7.2241   0.0000   0.0000   0.0000   0.3665
  30.000   1.4880   0.32679   0.32599  -0.2650  0.0087  0.8124  -7.4411   0.0000   0.0000   0.0000   0.3658


