xflr5 v6.57

 Calculated polar for: NASA SC(2)-0614 AIRFOIL

 1 1 Reynolds number fixed          Mach number fixed         

 xtrf =   1.000 (top)        1.000 (bottom)
 Mach =   0.000     Re =    40.000 e 6     Ncrit =   9.000

  alpha     CL        CD       CDp       Cm    Top Xtr Bot Xtr   Cpmin    Chinge    XCp    
 ------- -------- --------- --------- -------- ------- ------- -------- --------- ---------
 -30.000  -1.8936   0.12277   0.12072  -0.0232  1.0000  0.0101  -18.1089   0.0000   0.0000   0.0000   0.1752
 -29.500  -1.9518   0.10860   0.10639  -0.0324  1.0000  0.0101  -18.4532   0.0000   0.0000   0.0000   0.1730
 -29.000  -2.0011   0.09617   0.09380  -0.0396  1.0000  0.0101  -18.6735   0.0000   0.0000   0.0000   0.1718
 -28.500  -2.0384   0.08569   0.08318  -0.0452  1.0000  0.0101  -18.7568   0.0000   0.0000   0.0000   0.1714
 -28.000  -2.0656   0.07671   0.07409  -0.0495  1.0000  0.0101  -18.7332   0.0000   0.0000   0.0000   0.1715
 -27.500  -2.0838   0.06909   0.06636  -0.0528  1.0000  0.0101  -18.6186   0.0000   0.0000   0.0000   0.1719
 -27.000  -2.0932   0.06267   0.05985  -0.0552  1.0000  0.0101  -18.4223   0.0000   0.0000   0.0000   0.1726
 -26.500  -2.0989   0.05678   0.05388  -0.0573  1.0000  0.0101  -18.1986   0.0000   0.0000   0.0000   0.1733
 -26.000  -2.0982   0.05173   0.04876  -0.0588  1.0000  0.0101  -17.9459   0.0000   0.0000   0.0000   0.1742
 -25.500  -2.0934   0.04722   0.04419  -0.0599  1.0000  0.0101  -17.6600   0.0000   0.0000   0.0000   0.1752
 -25.000  -2.0838   0.04327   0.04018  -0.0607  1.0000  0.0101  -17.3372   0.0000   0.0000   0.0000   0.1762
 -24.500  -2.0715   0.03967   0.03653  -0.0613  1.0000  0.0101  -16.9949   0.0000   0.0000   0.0000   0.1772
 -24.000  -2.0573   0.03631   0.03312  -0.0617  1.0000  0.0101  -16.6395   0.0000   0.0000   0.0000   0.1783
 -23.500  -2.0386   0.03341   0.03018  -0.0620  1.0000  0.0101  -16.2539   0.0000   0.0000   0.0000   0.1793
 -23.000  -2.0189   0.03066   0.02739  -0.0621  1.0000  0.0102  -15.8638   0.0000   0.0000   0.0000   0.1804
 -22.500  -1.9957   0.02827   0.02496  -0.0621  1.0000  0.0102  -15.4528   0.0000   0.0000   0.0000   0.1814
 -22.000  -1.9717   0.02599   0.02265  -0.0620  1.0000  0.0102  -15.0397   0.0000   0.0000   0.0000   0.1824
 -21.500  -1.9456   0.02402   0.02064  -0.0617  1.0000  0.0102  -14.6162   0.0000   0.0000   0.0000   0.1834
 -21.000  -1.9179   0.02216   0.01876  -0.0614  1.0000  0.0102  -14.1864   0.0000   0.0000   0.0000   0.1844
 -20.500  -1.8874   0.02049   0.01708  -0.0611  1.0000  0.0102  -13.7447   0.0000   0.0000   0.0000   0.1853
 -20.000  -1.8552   0.01896   0.01553  -0.0608  1.0000  0.0103  -13.2974   0.0000   0.0000   0.0000   0.1861
 -19.500  -1.8218   0.01757   0.01412  -0.0604  1.0000  0.0107  -12.8481   0.0000   0.0000   0.0000   0.1869
 -19.000  -1.7878   0.01624   0.01278  -0.0598  0.9979  0.0114  -12.4012   0.0000   0.0000   0.0000   0.1878
 -18.500  -1.7447   0.01505   0.01158  -0.0607  0.9877  0.0122  -11.9126   0.0000   0.0000   0.0000   0.1876
 -18.000  -1.6968   0.01400   0.01052  -0.0622  0.9797  0.0131  -11.4065   0.0000   0.0000   0.0000   0.1868
 -17.500  -1.6448   0.01302   0.00954  -0.0642  0.9744  0.0141  -10.8885   0.0000   0.0000   0.0000   0.1855
 -17.000  -1.5905   0.01206   0.00857  -0.0665  0.9626  0.0155  -10.3694   0.0000   0.0000   0.0000   0.1838
 -16.500  -1.5327   0.01105   0.00757  -0.0696  0.9533  0.0176  -9.8456   0.0000   0.0000   0.0000   0.1812
 -16.000  -1.4722   0.01019   0.00674  -0.0728  0.9472  0.0191  -9.3171   0.0000   0.0000   0.0000   0.1781
 -15.500  -1.4135   0.00971   0.00625  -0.0747  0.9363  0.0194  -8.8049   0.0000   0.0000   0.0000   0.1756
 -15.000  -1.3543   0.00930   0.00583  -0.0765  0.9286  0.0195  -8.3025   0.0000   0.0000   0.0000   0.1729
 -14.500  -1.2948   0.00893   0.00545  -0.0782  0.9160  0.0196  -7.8105   0.0000   0.0000   0.0000   0.1698
 -14.000  -1.2348   0.00858   0.00510  -0.0799  0.9058  0.0197  -7.3290   0.0000   0.0000   0.0000   0.1663
 -13.500  -1.1746   0.00828   0.00477  -0.0816  0.8903  0.0197  -6.8592   0.0000   0.0000   0.0000   0.1623
 -13.000  -1.1140   0.00799   0.00447  -0.0833  0.8768  0.0198  -6.4010   0.0000   0.0000   0.0000   0.1577
 -12.500  -1.0530   0.00771   0.00418  -0.0850  0.8655  0.0198  -5.9835   0.0000   0.0000   0.0000   0.1524
 -12.000  -0.9920   0.00747   0.00392  -0.0866  0.8472  0.0199  -5.5981   0.0000   0.0000   0.0000   0.1464
 -11.500  -0.9308   0.00726   0.00368  -0.0882  0.8247  0.0199  -5.2224   0.0000   0.0000   0.0000   0.1395
 -11.000  -0.8694   0.00706   0.00344  -0.0899  0.8039  0.0199  -4.8567   0.0000   0.0000   0.0000   0.1315
 -10.500  -0.8080   0.00691   0.00323  -0.0914  0.7727  0.0200  -4.5011   0.0000   0.0000   0.0000   0.1221
 -10.000  -0.7464   0.00677   0.00304  -0.0930  0.7409  0.0200  -4.1555   0.0000   0.0000   0.0000   0.1111
  -9.500  -0.6849   0.00667   0.00286  -0.0945  0.7000  0.0201  -3.8205   0.0000   0.0000   0.0000   0.0979
  -9.000  -0.6230   0.00654   0.00269  -0.0961  0.6730  0.0202  -3.4953   0.0000   0.0000   0.0000   0.0820
  -8.000  -0.4994   0.00638   0.00240  -0.0991  0.5997  0.0211  -2.8772   0.0000   0.0000   0.0000   0.0380
  -7.500  -0.4371   0.00624   0.00226  -0.1006  0.5866  0.0237  -2.5839   0.0000   0.0000   0.0000   0.0060
  -7.000  -0.3748   0.00613   0.00213  -0.1021  0.5608  0.0267  -2.3018   0.0000   0.0000   0.0000  -0.0368
  -6.500  -0.3123   0.00605   0.00199  -0.1037  0.5159  0.0303  -2.0311   0.0000   0.0000   0.0000  -0.0973
  -6.000  -0.2500   0.00606   0.00188  -0.1053  0.4397  0.0395  -1.7722   0.0000   0.0000   0.0000  -0.1877
  -5.500  -0.1887   0.00614   0.00181  -0.1066  0.3672  0.0405  -1.5253   0.0000   0.0000   0.0000  -0.3339
  -5.000  -0.1265   0.00611   0.00174  -0.1080  0.3325  0.0480  -1.3288   0.0000   0.0000   0.0000  -0.6277
  -4.000  -0.0039   0.00626   0.00166  -0.1103  0.2212  0.0503  -0.9884   0.0000   0.0000   0.0000  -28.4806
  -3.500   0.0572   0.00634   0.00164  -0.1113  0.1707  0.0539  -0.8448   0.0000   0.0000   0.0000   2.2275
  -3.000   0.1189   0.00634   0.00161  -0.1125  0.1491  0.0594  -0.7058   0.0000   0.0000   0.0000   1.2082
  -2.000   0.2429   0.00632   0.00158  -0.1150  0.1083  0.0970  -0.4737   0.0000   0.0000   0.0000   0.7262
  -1.500   0.3041   0.00642   0.00162  -0.1160  0.0747  0.1130  -0.5925   0.0000   0.0000   0.0000   0.6326
  -1.000   0.3660   0.00639   0.00163  -0.1172  0.0679  0.1408  -0.7305   0.0000   0.0000   0.0000   0.5700
  -0.500   0.4274   0.00644   0.00167  -0.1182  0.0539  0.1683  -0.8727   0.0000   0.0000   0.0000   0.5256
   0.500   0.5502   0.00648   0.00177  -0.1203  0.0449  0.2297  -1.1744   0.0000   0.0000   0.0000   0.4662
   1.000   0.6114   0.00650   0.00184  -0.1212  0.0398  0.2668  -1.3329   0.0000   0.0000   0.0000   0.4454
   1.500   0.6744   0.00641   0.00190  -0.1227  0.0394  0.3542  -1.5128   0.0000   0.0000   0.0000   0.4286
   2.000   0.7353   0.00644   0.00198  -0.1236  0.0392  0.3938  -1.7391   0.0000   0.0000   0.0000   0.4142
   2.500   0.7970   0.00642   0.00206  -0.1247  0.0384  0.4597  -1.9995   0.0000   0.0000   0.0000   0.4021
   3.000   0.8572   0.00656   0.00223  -0.1255  0.0282  0.5102  -2.2666   0.0000   0.0000   0.0000   0.3916
   3.500   0.9159   0.00676   0.00239  -0.1258  0.0249  0.5196  -2.5420   0.0000   0.0000   0.0000   0.3821
   4.000   0.9748   0.00692   0.00254  -0.1262  0.0222  0.5350  -2.8291   0.0000   0.0000   0.0000   0.3736
   4.500   1.0333   0.00709   0.00269  -0.1264  0.0199  0.5437  -3.1262   0.0000   0.0000   0.0000   0.3661
   6.000   1.2076   0.00763   0.00320  -0.1270  0.0195  0.5762  -4.0793   0.0000   0.0000   0.0000   0.3472
   6.500   1.2649   0.00784   0.00339  -0.1270  0.0194  0.5805  -4.4153   0.0000   0.0000   0.0000   0.3419
   7.000   1.3220   0.00805   0.00359  -0.1270  0.0194  0.5875  -4.7610   0.0000   0.0000   0.0000   0.3369
   7.500   1.3787   0.00828   0.00380  -0.1268  0.0193  0.5906  -5.1154   0.0000   0.0000   0.0000   0.3322
   8.000   1.4351   0.00851   0.00403  -0.1267  0.0193  0.5976  -5.4784   0.0000   0.0000   0.0000   0.3278
   8.500   1.4910   0.00876   0.00427  -0.1264  0.0193  0.6001  -5.8501   0.0000   0.0000   0.0000   0.3237
   9.000   1.5466   0.00902   0.00451  -0.1261  0.0192  0.6039  -6.2303   0.0000   0.0000   0.0000   0.3197
   9.500   1.6017   0.00929   0.00477  -0.1257  0.0192  0.6080  -6.6218   0.0000   0.0000   0.0000   0.3159
  10.500   1.7106   0.00986   0.00533  -0.1247  0.0191  0.6181  -7.5284   0.0000   0.0000   0.0000   0.3087
  11.000   1.7641   0.01017   0.00563  -0.1240  0.0190  0.6203  -7.9960   0.0000   0.0000   0.0000   0.3053
  11.500   1.8172   0.01049   0.00595  -0.1233  0.0190  0.6257  -8.4734   0.0000   0.0000   0.0000   0.3020
  12.000   1.8695   0.01083   0.00628  -0.1224  0.0189  0.6301  -8.9590   0.0000   0.0000   0.0000   0.2988
  12.500   1.9212   0.01118   0.00663  -0.1214  0.0188  0.6384  -9.4527   0.0000   0.0000   0.0000   0.2956
  13.000   1.9717   0.01159   0.00703  -0.1202  0.0185  0.6405  -9.9517   0.0000   0.0000   0.0000   0.2925
  13.500   2.0194   0.01217   0.00757  -0.1185  0.0169  0.6464  -10.4471   0.0000   0.0000   0.0000   0.2893
  14.500   2.1113   0.01337   0.00875  -0.1146  0.0137  0.6589  -11.4471   0.0000   0.0000   0.0000   0.2829
  15.000   2.1562   0.01391   0.00929  -0.1125  0.0128  0.6609  -11.9574   0.0000   0.0000   0.0000   0.2798
  15.500   2.1995   0.01445   0.00984  -0.1101  0.0119  0.6665  -12.4677   0.0000   0.0000   0.0000   0.2767
  16.000   2.2388   0.01500   0.01040  -0.1069  0.0112  0.6703  -12.9661   0.0000   0.0000   0.0000   0.2734
  16.500   2.2755   0.01558   0.01100  -0.1033  0.0105  0.6779  -13.4582   0.0000   0.0000   0.0000   0.2700
  17.000   2.3105   0.01621   0.01164  -0.0995  0.0099  0.6796  -13.9482   0.0000   0.0000   0.0000   0.2666
  17.500   2.3340   0.01699   0.01244  -0.0936  0.0098  0.6802  -14.3805   0.0000   0.0000   0.0000   0.2626
  18.000   2.3618   0.01787   0.01334  -0.0888  0.0098  0.6827  -14.8420   0.0000   0.0000   0.0000   0.2590
  18.500   2.3900   0.01882   0.01433  -0.0844  0.0097  0.6860  -15.3111   0.0000   0.0000   0.0000   0.2556
  19.000   2.4167   0.01991   0.01546  -0.0800  0.0097  0.6887  -15.7757   0.0000   0.0000   0.0000   0.2522
  20.000   2.4666   0.02248   0.01811  -0.0714  0.0097  0.6997  -16.6978   0.0000   0.0000   0.0000   0.2458
  20.500   2.4887   0.02401   0.01968  -0.0672  0.0097  0.7047  -17.1467   0.0000   0.0000   0.0000   0.2426
  21.000   2.5093   0.02573   0.02145  -0.0632  0.0097  0.7088  -17.5898   0.0000   0.0000   0.0000   0.2395
  21.500   2.5275   0.02767   0.02344  -0.0592  0.0097  0.7101  -18.0204   0.0000   0.0000   0.0000   0.2365
  22.000   2.5440   0.02983   0.02566  -0.0554  0.0097  0.7149  -18.4420   0.0000   0.0000   0.0000   0.2335
  22.500   2.5585   0.03227   0.02815  -0.0518  0.0097  0.7190  -18.8517   0.0000   0.0000   0.0000   0.2307
  23.000   2.5715   0.03499   0.03095  -0.0485  0.0097  0.7278  -19.2524   0.0000   0.0000   0.0000   0.2280
  23.500   2.5811   0.03812   0.03414  -0.0455  0.0096  0.7299  -19.6307   0.0000   0.0000   0.0000   0.2253
  24.000   2.5890   0.04161   0.03769  -0.0429  0.0096  0.7333  -19.9962   0.0000   0.0000   0.0000   0.2228
  24.500   2.5935   0.04557   0.04173  -0.0406  0.0096  0.7373  -20.3687   0.0000   0.0000   0.0000   0.2204
  26.000   2.5847   0.06099   0.05743  -0.0368  0.0096  0.7556  -21.3169   0.0000   0.0000   0.0000   0.2143
  26.500   2.5705   0.06787   0.06442  -0.0370  0.0096  0.7594  -21.5323   0.0000   0.0000   0.0000   0.2128
  27.000   2.5493   0.07584   0.07251  -0.0382  0.0096  0.7619  -21.6805   0.0000   0.0000   0.0000   0.2116
  27.500   2.5202   0.08507   0.08187  -0.0405  0.0096  0.7660  -21.7475   0.0000   0.0000   0.0000   0.2109
  28.000   2.4819   0.09582   0.09277  -0.0445  0.0096  0.7688  -21.7153   0.0000   0.0000   0.0000   0.2109
  28.500   2.4328   0.10835   0.10547  -0.0506  0.0096  0.7724  -21.5560   0.0000   0.0000   0.0000   0.2118
  29.000   2.3763   0.12228   0.11958  -0.0591  0.0096  0.7768  -21.2882   0.0000   0.0000   0.0000   0.2137
  29.500   2.3126   0.13771   0.13521  -0.0704  0.0096  0.7788  -20.8975   0.0000   0.0000   0.0000   0.2170
  30.000   2.2303   0.15664   0.15436  -0.0868  0.0096  0.7793  -20.2386   0.0000   0.0000   0.0000   0.2231


