xflr5 v6.57

 Calculated polar for: SC(2)-0714 Supercritical airfoil (coordinates from Raymer w/ one correction)

 1 1 Reynolds number fixed          Mach number fixed         

 xtrf =   1.000 (top)        1.000 (bottom)
 Mach =   0.000     Re =     9.000 e 6     Ncrit =   9.000

  alpha     CL        CD       CDp       Cm    Top Xtr Bot Xtr   Cpmin    Chinge    XCp    
 ------- -------- --------- --------- -------- ------- ------- -------- --------- ---------
 -30.000  -0.5206   0.20844   0.20779   0.0154  1.0000  0.0020  -2.8656   0.0000   0.0000   0.0000   0.2458
 -29.500  -0.5102   0.20368   0.20303   0.0120  1.0000  0.0020  -2.7465   0.0000   0.0000   0.0000   0.2411
 -29.000  -0.4996   0.19890   0.19824   0.0086  1.0000  0.0020  -2.6289   0.0000   0.0000   0.0000   0.2363
 -28.500  -0.4888   0.19411   0.19344   0.0053  1.0000  0.0021  -2.5128   0.0000   0.0000   0.0000   0.2312
 -28.000  -0.4781   0.18933   0.18866   0.0021  1.0000  0.0021  -2.3992   0.0000   0.0000   0.0000   0.2261
 -27.500  -0.4676   0.18463   0.18395  -0.0009  1.0000  0.0021  -2.2888   0.0000   0.0000   0.0000   0.2210
 -27.000  -0.4577   0.18009   0.17941  -0.0036  1.0000  0.0021  -2.1824   0.0000   0.0000   0.0000   0.2164
 -26.500  -0.4483   0.17565   0.17497  -0.0060  1.0000  0.0022  -2.0811   0.0000   0.0000   0.0000   0.2120
 -26.000  -0.4401   0.17140   0.17073  -0.0080  1.0000  0.0027  -2.0052   0.0000   0.0000   0.0000   0.2084
 -25.500  -0.4331   0.16721   0.16654  -0.0096  1.0000  0.0032  -1.9956   0.0000   0.0000   0.0000   0.2054
 -25.000  -0.4210   0.16140   0.16074  -0.0132  0.9998  0.0038  -1.9952   0.0000   0.0000   0.0000   0.1972
 -24.000  -1.4212   0.10351   0.10075  -0.0507  1.0000  0.0021  -12.3332   0.0000   0.0000   0.0000   0.1704
 -23.500  -1.4956   0.08562   0.08258  -0.0602  1.0000  0.0021  -12.8213   0.0000   0.0000   0.0000   0.1676
 -23.000  -1.5375   0.07315   0.06991  -0.0665  1.0000  0.0021  -12.9884   0.0000   0.0000   0.0000   0.1664
 -22.500  -1.5546   0.06471   0.06133  -0.0704  1.0000  0.0021  -12.9339   0.0000   0.0000   0.0000   0.1659
 -22.000  -1.5627   0.05761   0.05412  -0.0733  1.0000  0.0021  -12.7995   0.0000   0.0000   0.0000   0.1658
 -21.500  -1.5678   0.05121   0.04761  -0.0757  1.0000  0.0022  -12.6349   0.0000   0.0000   0.0000   0.1659
 -21.000  -1.5641   0.04605   0.04236  -0.0773  1.0000  0.0023  -12.4028   0.0000   0.0000   0.0000   0.1662
 -20.500  -1.5561   0.04156   0.03778  -0.0784  1.0000  0.0024  -12.1368   0.0000   0.0000   0.0000   0.1666
 -20.000  -1.5406   0.03815   0.03432  -0.0789  1.0000  0.0025  -11.8195   0.0000   0.0000   0.0000   0.1671
 -19.500  -1.5273   0.03453   0.03064  -0.0793  1.0000  0.0027  -11.5177   0.0000   0.0000   0.0000   0.1676
 -19.000  -1.5112   0.03156   0.02761  -0.0790  1.0000  0.0029  -11.1968   0.0000   0.0000   0.0000   0.1685
 -18.500  -1.4951   0.02919   0.02520  -0.0774  1.0000  0.0031  -10.8732   0.0000   0.0000   0.0000   0.1702
 -18.000  -1.4790   0.02672   0.02269  -0.0761  0.9998  0.0034  -10.5538   0.0000   0.0000   0.0000   0.1717
 -17.500  -1.4468   0.02446   0.02039  -0.0773  0.9991  0.0037  -10.1557   0.0000   0.0000   0.0000   0.1708
 -17.000  -1.4076   0.02267   0.01858  -0.0787  0.9977  0.0040  -9.7278   0.0000   0.0000   0.0000   0.1694
 -16.500  -1.3701   0.02057   0.01647  -0.0804  0.9954  0.0045  -9.3252   0.0000   0.0000   0.0000   0.1676
 -16.000  -1.3283   0.01870   0.01459  -0.0823  0.9918  0.0050  -8.9074   0.0000   0.0000   0.0000   0.1653
 -15.500  -1.3087   0.01598   0.01189  -0.0815  0.9792  0.0093  -8.6038   0.0000   0.0000   0.0000   0.1660
 -15.000  -1.2610   0.01489   0.01077  -0.0828  0.9731  0.0095  -8.1513   0.0000   0.0000   0.0000   0.1635
 -14.500  -1.2089   0.01390   0.00978  -0.0847  0.9689  0.0097  -7.6887   0.0000   0.0000   0.0000   0.1599
 -14.000  -1.1536   0.01299   0.00887  -0.0871  0.9660  0.0099  -7.2227   0.0000   0.0000   0.0000   0.1553
 -13.500  -1.0965   0.01220   0.00809  -0.0894  0.9618  0.0101  -6.7601   0.0000   0.0000   0.0000   0.1500
 -13.000  -1.0373   0.01146   0.00735  -0.0920  0.9566  0.0108  -6.3023   0.0000   0.0000   0.0000   0.1436
 -12.500  -0.9768   0.01083   0.00674  -0.0946  0.9506  0.0125  -5.8513   0.0000   0.0000   0.0000   0.1360
 -12.000  -0.9148   0.01018   0.00612  -0.0974  0.9494  0.0143  -5.4241   0.0000   0.0000   0.0000   0.1269
 -11.500  -0.8514   0.00956   0.00553  -0.1005  0.9486  0.0153  -5.0439   0.0000   0.0000   0.0000   0.1159
 -11.000  -0.7875   0.00901   0.00500  -0.1034  0.9472  0.0164  -4.6730   0.0000   0.0000   0.0000   0.1030
 -10.500  -0.7231   0.00844   0.00449  -0.1064  0.9447  0.0185  -4.3105   0.0000   0.0000   0.0000   0.0876
 -10.000  -0.6600   0.00801   0.00408  -0.1088  0.9396  0.0200  -3.9617   0.0000   0.0000   0.0000   0.0701
  -9.500  -0.5968   0.00760   0.00370  -0.1111  0.9306  0.0255  -3.6261   0.0000   0.0000   0.0000   0.0489
  -9.000  -0.5330   0.00722   0.00336  -0.1135  0.9195  0.0294  -3.2992   0.0000   0.0000   0.0000   0.0222
  -8.000  -0.4071   0.00671   0.00287  -0.1174  0.9097  0.0311  -2.6824   0.0000   0.0000   0.0000  -0.0538
  -7.500  -0.3441   0.00648   0.00264  -0.1192  0.8995  0.0356  -2.3924   0.0000   0.0000   0.0000  -0.1127
  -7.000  -0.2800   0.00620   0.00243  -0.1213  0.8975  0.0391  -2.1108   0.0000   0.0000   0.0000  -0.2010
  -6.500  -0.2171   0.00602   0.00224  -0.1231  0.8873  0.0401  -1.8565   0.0000   0.0000   0.0000  -0.3369
  -6.000  -0.1548   0.00589   0.00209  -0.1246  0.8669  0.0408  -1.6509   0.0000   0.0000   0.0000  -0.5797
  -5.500  -0.0915   0.00571   0.00192  -0.1264  0.8492  0.0478  -1.4524   0.0000   0.0000   0.0000  -1.1682
  -5.000  -0.0279   0.00557   0.00174  -0.1284  0.7991  0.0691  -1.2612   0.0000   0.0000   0.0000  -4.4602
  -4.000   0.0895   0.00634   0.00175  -0.1301  0.5324  0.1002  -0.9137   0.0000   0.0000   0.0000   1.7276
  -3.500   0.1494   0.00663   0.00175  -0.1312  0.4189  0.1166  -0.7488   0.0000   0.0000   0.0000   1.1399
  -3.000   0.2105   0.00680   0.00175  -0.1326  0.3278  0.1507  -0.6110   0.0000   0.0000   0.0000   0.8862
  -2.500   0.2743   0.00679   0.00172  -0.1346  0.2603  0.2122  -0.4788   0.0000   0.0000   0.0000   0.7444
  -2.000   0.3393   0.00672   0.00170  -0.1370  0.1975  0.3099  -0.5637   0.0000   0.0000   0.0000   0.6556
  -1.500   0.4028   0.00675   0.00173  -0.1390  0.1347  0.3998  -0.6838   0.0000   0.0000   0.0000   0.5956
  -1.000   0.4669   0.00665   0.00174  -0.1409  0.0986  0.4942  -0.8207   0.0000   0.0000   0.0000   0.5516
  -0.500   0.5279   0.00672   0.00184  -0.1420  0.0689  0.5495  -0.9685   0.0000   0.0000   0.0000   0.5180
   0.000   0.5868   0.00691   0.00196  -0.1425  0.0614  0.5645  -1.1432   0.0000   0.0000   0.0000   0.4911
   0.500   0.6457   0.00709   0.00208  -0.1429  0.0513  0.5754  -1.3239   0.0000   0.0000   0.0000   0.4691
   1.500   0.7633   0.00737   0.00235  -0.1436  0.0493  0.5950  -1.7093   0.0000   0.0000   0.0000   0.4349
   2.000   0.8216   0.00753   0.00250  -0.1438  0.0490  0.5984  -1.9205   0.0000   0.0000   0.0000   0.4214
   2.500   0.8795   0.00772   0.00266  -0.1440  0.0481  0.5998  -2.1841   0.0000   0.0000   0.0000   0.4095
   3.000   0.9360   0.00805   0.00290  -0.1438  0.0407  0.6006  -2.4546   0.0000   0.0000   0.0000   0.3990
   3.500   0.9932   0.00827   0.00310  -0.1439  0.0386  0.6098  -2.7378   0.0000   0.0000   0.0000   0.3897
   4.000   1.0497   0.00857   0.00334  -0.1437  0.0348  0.6182  -3.0292   0.0000   0.0000   0.0000   0.3813
   4.500   1.1058   0.00886   0.00360  -0.1435  0.0292  0.6233  -3.3306   0.0000   0.0000   0.0000   0.3736
   5.000   1.1617   0.00915   0.00386  -0.1432  0.0279  0.6265  -3.6425   0.0000   0.0000   0.0000   0.3666
   5.500   1.2162   0.00955   0.00419  -0.1427  0.0231  0.6281  -3.9597   0.0000   0.0000   0.0000   0.3601
   6.000   1.2711   0.00988   0.00448  -0.1422  0.0196  0.6290  -4.2875   0.0000   0.0000   0.0000   0.3541
   6.500   1.3257   0.01020   0.00477  -0.1417  0.0193  0.6296  -4.6258   0.0000   0.0000   0.0000   0.3484
   7.000   1.3798   0.01054   0.00508  -0.1411  0.0190  0.6300  -4.9726   0.0000   0.0000   0.0000   0.3432
   7.500   1.4334   0.01088   0.00542  -0.1403  0.0189  0.6303  -5.3269   0.0000   0.0000   0.0000   0.3382
   8.000   1.4863   0.01125   0.00578  -0.1395  0.0187  0.6305  -5.6898   0.0000   0.0000   0.0000   0.3335
   8.500   1.5387   0.01165   0.00616  -0.1385  0.0183  0.6341  -6.0608   0.0000   0.0000   0.0000   0.3290
   9.000   1.5896   0.01213   0.00663  -0.1373  0.0169  0.6382  -6.4382   0.0000   0.0000   0.0000   0.3246
   9.500   1.6378   0.01281   0.00726  -0.1357  0.0134  0.6417  -6.8133   0.0000   0.0000   0.0000   0.3203
  10.000   1.6869   0.01333   0.00777  -0.1341  0.0112  0.6446  -7.1984   0.0000   0.0000   0.0000   0.3162
  10.500   1.7354   0.01383   0.00826  -0.1325  0.0097  0.6469  -7.6392   0.0000   0.0000   0.0000   0.3123
  11.000   1.7826   0.01437   0.00880  -0.1306  0.0095  0.6487  -8.0879   0.0000   0.0000   0.0000   0.3084
  11.500   1.8284   0.01493   0.00937  -0.1285  0.0094  0.6498  -8.5414   0.0000   0.0000   0.0000   0.3046
  12.000   1.8720   0.01555   0.00999  -0.1260  0.0092  0.6504  -8.9945   0.0000   0.0000   0.0000   0.3008
  12.500   1.9119   0.01620   0.01066  -0.1228  0.0089  0.6557  -9.4405   0.0000   0.0000   0.0000   0.2968
  13.000   1.9329   0.01808   0.01252  -0.1164  0.0046  0.6641  -9.7919   0.0000   0.0000   0.0000   0.2920
  13.500   1.9586   0.01908   0.01357  -0.1107  0.0043  0.6709  -10.1735   0.0000   0.0000   0.0000   0.2875
  14.000   1.9854   0.02021   0.01474  -0.1055  0.0040  0.6756  -10.5638   0.0000   0.0000   0.0000   0.2832
  14.500   2.0108   0.02148   0.01605  -0.1003  0.0037  0.6782  -10.9530   0.0000   0.0000   0.0000   0.2790
  15.000   2.0353   0.02284   0.01746  -0.0953  0.0035  0.6796  -11.3455   0.0000   0.0000   0.0000   0.2750
  15.500   2.0568   0.02437   0.01903  -0.0900  0.0033  0.6803  -11.7288   0.0000   0.0000   0.0000   0.2709
  16.000   2.0811   0.02592   0.02064  -0.0855  0.0031  0.6871  -12.1323   0.0000   0.0000   0.0000   0.2673
  16.500   2.1003   0.02775   0.02255  -0.0805  0.0030  0.6930  -12.5140   0.0000   0.0000   0.0000   0.2635
  17.000   2.1153   0.02988   0.02476  -0.0754  0.0028  0.6971  -12.8748   0.0000   0.0000   0.0000   0.2598
  17.500   2.1327   0.03209   0.02703  -0.0710  0.0026  0.6994  -13.2519   0.0000   0.0000   0.0000   0.2563
  18.000   2.1422   0.03490   0.02992  -0.0663  0.0025  0.7016  -13.5852   0.0000   0.0000   0.0000   0.2528
  18.500   2.1514   0.03789   0.03300  -0.0620  0.0023  0.7105  -13.9174   0.0000   0.0000   0.0000   0.2496
  19.000   2.1536   0.04174   0.03696  -0.0580  0.0022  0.7183  -14.2062   0.0000   0.0000   0.0000   0.2465
  19.500   2.1572   0.04586   0.04118  -0.0549  0.0021  0.7240  -14.5015   0.0000   0.0000   0.0000   0.2437
  20.000   2.1548   0.05092   0.04636  -0.0524  0.0020  0.7272  -14.7549   0.0000   0.0000   0.0000   0.2413
  20.500   2.1474   0.05697   0.05253  -0.0508  0.0020  0.7288  -14.9683   0.0000   0.0000   0.0000   0.2393
  21.000   2.1325   0.06433   0.06003  -0.0504  0.0019  0.7296  -15.1221   0.0000   0.0000   0.0000   0.2378
  21.500   2.1102   0.07340   0.06926  -0.0516  0.0019  0.7300  -15.2082   0.0000   0.0000   0.0000   0.2371
  22.000   2.0754   0.08495   0.08100  -0.0550  0.0019  0.7309  -15.1819   0.0000   0.0000   0.0000   0.2376
  22.500   2.0239   0.09955   0.09584  -0.0610  0.0019  0.7333  -14.9948   0.0000   0.0000   0.0000   0.2396
  23.000   1.9328   0.12156   0.11819  -0.0728  0.0019  0.7339  -14.4210   0.0000   0.0000   0.0000   0.2453
  24.000   1.3448   0.27633   0.27481  -0.1915  0.0027  0.7255  -6.9011   0.0000   0.0000   0.0000   0.3497
  25.500   1.3413   0.31080   0.30945  -0.2201  0.0020  0.7293  -5.9038   0.0000   0.0000   0.0000   0.3682
  26.000   1.3542   0.31590   0.31456  -0.2249  0.0019  0.7300  -6.0064   0.0000   0.0000   0.0000   0.3685
  26.500   1.3670   0.32096   0.31962  -0.2297  0.0019  0.7320  -6.1971   0.0000   0.0000   0.0000   0.3688
  27.000   1.3795   0.32600   0.32468  -0.2345  0.0018  0.7373  -6.3894   0.0000   0.0000   0.0000   0.3690
  27.500   1.3916   0.33111   0.32982  -0.2395  0.0018  0.7418  -6.5778   0.0000   0.0000   0.0000   0.3693


