xflr5 v6.57

 Calculated polar for: SC(2)-0714 Supercritical airfoil (coordinates from Raymer w/ one correction)

 1 1 Reynolds number fixed          Mach number fixed         

 xtrf =   1.000 (top)        1.000 (bottom)
 Mach =   0.000     Re =    40.000 e 6     Ncrit =   9.000

  alpha     CL        CD       CDp       Cm    Top Xtr Bot Xtr   Cpmin    Chinge    XCp    
 ------- -------- --------- --------- -------- ------- ------- -------- --------- ---------
 -30.000  -0.5209   0.20661   0.20624   0.0148  1.0000  0.0020  -2.9365   0.0000   0.0000   0.0000   0.2443
 -29.500  -0.5102   0.20191   0.20154   0.0113  1.0000  0.0020  -2.8098   0.0000   0.0000   0.0000   0.2396
 -28.000  -0.9911   0.25544   0.25462   0.0439  1.0000  0.0020  -7.0832   0.0000   0.0000   0.0000   0.2408
 -27.500  -0.9787   0.24960   0.24878   0.0388  1.0000  0.0020  -6.9997   0.0000   0.0000   0.0000   0.2377
 -26.500  -1.5689   0.11442   0.11215  -0.0436  1.0000  0.0020  -14.5432   0.0000   0.0000   0.0000   0.1711
 -26.000  -1.6639   0.09422   0.09169  -0.0547  1.0000  0.0020  -15.2457   0.0000   0.0000   0.0000   0.1680
 -25.500  -1.7115   0.08138   0.07869  -0.0614  1.0000  0.0020  -15.4688   0.0000   0.0000   0.0000   0.1668
 -25.000  -1.7466   0.07079   0.06795  -0.0665  1.0000  0.0020  -15.5555   0.0000   0.0000   0.0000   0.1664
 -24.500  -1.7616   0.06316   0.06023  -0.0698  1.0000  0.0020  -15.4611   0.0000   0.0000   0.0000   0.1666
 -24.000  -1.7693   0.05651   0.05349  -0.0724  1.0000  0.0020  -15.2995   0.0000   0.0000   0.0000   0.1668
 -23.500  -1.7706   0.05095   0.04786  -0.0742  1.0000  0.0020  -15.0811   0.0000   0.0000   0.0000   0.1674
 -23.000  -1.7695   0.04571   0.04256  -0.0758  1.0000  0.0020  -14.8412   0.0000   0.0000   0.0000   0.1680
 -22.500  -1.7630   0.04119   0.03798  -0.0770  1.0000  0.0020  -14.5591   0.0000   0.0000   0.0000   0.1686
 -22.000  -1.7468   0.03793   0.03467  -0.0775  1.0000  0.0020  -14.2064   0.0000   0.0000   0.0000   0.1693
 -21.500  -1.7353   0.03414   0.03084  -0.0782  1.0000  0.0020  -13.8887   0.0000   0.0000   0.0000   0.1700
 -21.000  -1.7172   0.03109   0.02776  -0.0785  1.0000  0.0020  -13.5269   0.0000   0.0000   0.0000   0.1706
 -20.500  -1.6934   0.02879   0.02543  -0.0784  1.0000  0.0020  -13.1283   0.0000   0.0000   0.0000   0.1713
 -20.000  -1.6751   0.02613   0.02273  -0.0780  1.0000  0.0020  -12.7683   0.0000   0.0000   0.0000   0.1723
 -19.500  -1.6484   0.02380   0.02038  -0.0786  0.9993  0.0020  -12.3622   0.0000   0.0000   0.0000   0.1724
 -19.000  -1.6141   0.02212   0.01869  -0.0790  0.9971  0.0020  -11.9137   0.0000   0.0000   0.0000   0.1723
 -18.500  -1.5810   0.02018   0.01673  -0.0799  0.9897  0.0020  -11.4813   0.0000   0.0000   0.0000   0.1718
 -18.000  -1.5495   0.01864   0.01515  -0.0795  0.9779  0.0021  -11.0592   0.0000   0.0000   0.0000   0.1722
 -17.500  -1.5155   0.01727   0.01376  -0.0791  0.9693  0.0021  -10.6285   0.0000   0.0000   0.0000   0.1724
 -17.000  -1.4805   0.01607   0.01253  -0.0784  0.9621  0.0021  -10.1981   0.0000   0.0000   0.0000   0.1727
 -16.500  -1.4346   0.01483   0.01128  -0.0800  0.9503  0.0021  -9.7223   0.0000   0.0000   0.0000   0.1709
 -16.000  -1.3830   0.01377   0.01022  -0.0822  0.9494  0.0021  -9.2267   0.0000   0.0000   0.0000   0.1682
 -15.500  -1.3283   0.01284   0.00932  -0.0845  0.9488  0.0021  -8.7263   0.0000   0.0000   0.0000   0.1649
 -15.000  -1.2706   0.01195   0.00844  -0.0873  0.9476  0.0021  -8.2239   0.0000   0.0000   0.0000   0.1606
 -14.500  -1.2122   0.01123   0.00772  -0.0898  0.9387  0.0021  -7.7291   0.0000   0.0000   0.0000   0.1561
 -14.000  -1.1517   0.01054   0.00702  -0.0927  0.9197  0.0021  -7.2378   0.0000   0.0000   0.0000   0.1505
 -13.500  -1.0898   0.00989   0.00637  -0.0956  0.9131  0.0024  -6.7542   0.0000   0.0000   0.0000   0.1439
 -13.000  -1.0267   0.00931   0.00577  -0.0987  0.8994  0.0030  -6.2793   0.0000   0.0000   0.0000   0.1362
 -12.500  -0.9634   0.00878   0.00526  -0.1016  0.8977  0.0035  -5.8171   0.0000   0.0000   0.0000   0.1275
 -12.000  -0.9017   0.00835   0.00482  -0.1038  0.8811  0.0040  -5.3754   0.0000   0.0000   0.0000   0.1183
 -11.500  -0.8395   0.00798   0.00445  -0.1060  0.8674  0.0038  -4.9833   0.0000   0.0000   0.0000   0.1077
 -11.000  -0.7770   0.00761   0.00406  -0.1082  0.8491  0.0044  -4.6155   0.0000   0.0000   0.0000   0.0951
 -10.500  -0.7138   0.00722   0.00367  -0.1106  0.8365  0.0052  -4.2601   0.0000   0.0000   0.0000   0.0798
 -10.000  -0.6481   0.00664   0.00312  -0.1136  0.8180  0.0099  -3.9268   0.0000   0.0000   0.0000   0.0596
  -9.500  -0.5854   0.00643   0.00290  -0.1155  0.8067  0.0100  -3.5940   0.0000   0.0000   0.0000   0.0377
  -9.000  -0.5240   0.00641   0.00272  -0.1171  0.7369  0.0103  -3.2757   0.0000   0.0000   0.0000   0.0114
  -8.500  -0.4612   0.00624   0.00254  -0.1190  0.7112  0.0141  -2.9633   0.0000   0.0000   0.0000  -0.0232
  -7.500  -0.3356   0.00616   0.00214  -0.1229  0.5301  0.0298  -2.3766   0.0000   0.0000   0.0000  -0.1330
  -7.000  -0.2736   0.00613   0.00203  -0.1244  0.4894  0.0300  -2.0998   0.0000   0.0000   0.0000  -0.2228
  -6.500  -0.2125   0.00622   0.00195  -0.1258  0.4117  0.0302  -1.8565   0.0000   0.0000   0.0000  -0.3624
  -6.000  -0.1522   0.00644   0.00190  -0.1270  0.2825  0.0304  -1.6543   0.0000   0.0000   0.0000  -0.6093
  -5.500  -0.0903   0.00642   0.00183  -0.1283  0.2573  0.0319  -1.4564   0.0000   0.0000   0.0000  -1.2082
  -5.000  -0.0281   0.00639   0.00175  -0.1298  0.2189  0.0379  -1.2660   0.0000   0.0000   0.0000  -4.4642
  -4.500   0.0337   0.00641   0.00170  -0.1311  0.1815  0.0424  -1.0832   0.0000   0.0000   0.0000   4.2189
  -4.000   0.0962   0.00637   0.00164  -0.1326  0.1489  0.0517  -0.9073   0.0000   0.0000   0.0000   1.6501
  -3.000   0.2202   0.00636   0.00159  -0.1352  0.1033  0.0858  -0.6000   0.0000   0.0000   0.0000   0.8702
  -2.000   0.3425   0.00644   0.00161  -0.1373  0.0666  0.1035  -0.5668   0.0000   0.0000   0.0000   0.6527
  -1.500   0.4045   0.00643   0.00163  -0.1386  0.0576  0.1417  -0.6861   0.0000   0.0000   0.0000   0.5932
  -1.000   0.4666   0.00639   0.00164  -0.1399  0.0525  0.1707  -0.8209   0.0000   0.0000   0.0000   0.5494
  -0.500   0.5277   0.00641   0.00168  -0.1408  0.0494  0.1996  -0.9704   0.0000   0.0000   0.0000   0.5159
   0.000   0.5907   0.00631   0.00171  -0.1424  0.0492  0.2740  -1.1520   0.0000   0.0000   0.0000   0.4893
   0.500   0.6523   0.00629   0.00177  -0.1435  0.0489  0.3163  -1.3391   0.0000   0.0000   0.0000   0.4677
   1.000   0.7144   0.00625   0.00184  -0.1448  0.0462  0.3963  -1.5343   0.0000   0.0000   0.0000   0.4499
   1.500   0.7738   0.00640   0.00197  -0.1453  0.0371  0.4186  -1.7322   0.0000   0.0000   0.0000   0.4346
   2.000   0.8343   0.00646   0.00208  -0.1462  0.0326  0.4757  -1.9512   0.0000   0.0000   0.0000   0.4215
   2.500   0.8934   0.00658   0.00220  -0.1466  0.0295  0.4913  -2.2187   0.0000   0.0000   0.0000   0.4099
   3.000   0.9532   0.00664   0.00232  -0.1472  0.0293  0.5330  -2.4992   0.0000   0.0000   0.0000   0.3998
   3.500   1.0109   0.00689   0.00253  -0.1474  0.0215  0.5501  -2.7846   0.0000   0.0000   0.0000   0.3907
   4.000   1.0687   0.00708   0.00269  -0.1475  0.0193  0.5625  -3.0823   0.0000   0.0000   0.0000   0.3824
   4.500   1.1253   0.00742   0.00299  -0.1474  0.0138  0.5775  -3.3854   0.0000   0.0000   0.0000   0.3748
   5.500   1.2386   0.00791   0.00340  -0.1471  0.0095  0.5801  -4.0266   0.0000   0.0000   0.0000   0.3615
   6.000   1.2948   0.00817   0.00363  -0.1469  0.0093  0.5806  -4.3603   0.0000   0.0000   0.0000   0.3556
   6.500   1.3480   0.00877   0.00418  -0.1460  0.0047  0.5909  -4.6759   0.0000   0.0000   0.0000   0.3499
   7.000   1.4028   0.00914   0.00453  -0.1455  0.0040  0.5976  -5.0248   0.0000   0.0000   0.0000   0.3447
   7.500   1.4578   0.00942   0.00480  -0.1451  0.0043  0.5996  -5.3842   0.0000   0.0000   0.0000   0.3398
   8.000   1.5110   0.00987   0.00521  -0.1443  0.0037  0.6006  -5.7491   0.0000   0.0000   0.0000   0.3351
   8.500   1.5641   0.01028   0.00561  -0.1435  0.0032  0.6101  -6.1241   0.0000   0.0000   0.0000   0.3306
   9.000   1.6169   0.01068   0.00599  -0.1426  0.0028  0.6200  -6.5068   0.0000   0.0000   0.0000   0.3264
   9.500   1.6690   0.01110   0.00641  -0.1416  0.0022  0.6266  -6.8955   0.0000   0.0000   0.0000   0.3223
  10.000   1.7204   0.01154   0.00683  -0.1405  0.0019  0.6282  -7.3359   0.0000   0.0000   0.0000   0.3183
  10.500   1.7709   0.01200   0.00727  -0.1392  0.0019  0.6288  -7.7917   0.0000   0.0000   0.0000   0.3145
  11.000   1.8205   0.01248   0.00773  -0.1377  0.0019  0.6293  -8.2550   0.0000   0.0000   0.0000   0.3107
  11.500   1.8691   0.01299   0.00823  -0.1361  0.0018  0.6296  -8.7248   0.0000   0.0000   0.0000   0.3070
  12.000   1.9166   0.01352   0.00875  -0.1343  0.0018  0.6298  -9.2001   0.0000   0.0000   0.0000   0.3034
  12.500   1.9628   0.01408   0.00930  -0.1323  0.0018  0.6300  -9.6797   0.0000   0.0000   0.0000   0.2998
  13.000   2.0074   0.01467   0.00988  -0.1299  0.0018  0.6302  -10.1621   0.0000   0.0000   0.0000   0.2963
  13.500   2.0503   0.01530   0.01050  -0.1273  0.0018  0.6304  -10.6454   0.0000   0.0000   0.0000   0.2927
  14.000   2.0888   0.01595   0.01116  -0.1239  0.0018  0.6310  -11.1158   0.0000   0.0000   0.0000   0.2890
  14.500   2.1234   0.01663   0.01186  -0.1197  0.0018  0.6358  -11.5744   0.0000   0.0000   0.0000   0.2851
  15.000   2.1560   0.01738   0.01262  -0.1153  0.0018  0.6409  -12.0298   0.0000   0.0000   0.0000   0.2813
  15.500   2.1784   0.01826   0.01353  -0.1090  0.0018  0.6451  -12.4385   0.0000   0.0000   0.0000   0.2769
  16.500   2.2275   0.02041   0.01574  -0.0981  0.0018  0.6496  -13.2924   0.0000   0.0000   0.0000   0.2689
  17.000   2.2527   0.02160   0.01695  -0.0932  0.0018  0.6503  -13.7304   0.0000   0.0000   0.0000   0.2652
  17.500   2.2721   0.02309   0.01848  -0.0877  0.0018  0.6547  -14.1405   0.0000   0.0000   0.0000   0.2614
  18.000   2.2965   0.02453   0.01996  -0.0832  0.0018  0.6634  -14.5831   0.0000   0.0000   0.0000   0.2579
  18.500   2.3115   0.02639   0.02187  -0.0778  0.0017  0.6716  -14.9748   0.0000   0.0000   0.0000   0.2542
  19.000   2.3247   0.02853   0.02407  -0.0725  0.0017  0.6776  -15.3566   0.0000   0.0000   0.0000   0.2506
  19.500   2.3384   0.03081   0.02640  -0.0678  0.0017  0.6793  -15.7436   0.0000   0.0000   0.0000   0.2472
  20.000   2.3461   0.03364   0.02929  -0.0630  0.0017  0.6799  -16.0942   0.0000   0.0000   0.0000   0.2439
  20.500   2.3563   0.03644   0.03214  -0.0588  0.0017  0.6810  -16.4606   0.0000   0.0000   0.0000   0.2408
  21.000   2.3569   0.04034   0.03612  -0.0548  0.0017  0.6877  -16.7642   0.0000   0.0000   0.0000   0.2378
  21.500   2.3610   0.04429   0.04015  -0.0517  0.0017  0.6941  -17.0880   0.0000   0.0000   0.0000   0.2350
  22.000   2.3591   0.04914   0.04509  -0.0491  0.0017  0.6983  -17.3674   0.0000   0.0000   0.0000   0.2326
  22.500   2.3511   0.05500   0.05104  -0.0473  0.0017  0.6997  -17.5992   0.0000   0.0000   0.0000   0.2304
  23.000   2.3400   0.06140   0.05755  -0.0463  0.0017  0.7016  -17.8020   0.0000   0.0000   0.0000   0.2286
  23.500   2.3179   0.06984   0.06610  -0.0468  0.0017  0.7100  -17.9107   0.0000   0.0000   0.0000   0.2274
  24.000   2.2848   0.08029   0.07671  -0.0491  0.0017  0.7182  -17.9182   0.0000   0.0000   0.0000   0.2271
  24.500   2.2403   0.09279   0.08939  -0.0534  0.0017  0.7241  -17.8117   0.0000   0.0000   0.0000   0.2276
  25.000   2.1701   0.10941   0.10622  -0.0609  0.0017  0.7264  -17.4544   0.0000   0.0000   0.0000   0.2300
  25.500   2.0561   0.13431   0.13144  -0.0756  0.0017  0.7253  -16.6279   0.0000   0.0000   0.0000   0.2367
  26.500   1.4223   0.29643   0.29520  -0.2123  0.0017  0.6930  -7.8360   0.0000   0.0000   0.0000   0.3479


