xflr5 v6.57

 Calculated polar for: WHITCOMB INTEGRAL SUPERCRITICAL AIRFOIL

 1 1 Reynolds number fixed          Mach number fixed         

 xtrf =   1.000 (top)        1.000 (bottom)
 Mach =   0.000     Re =    40.000 e 6     Ncrit =   9.000

  alpha     CL        CD       CDp       Cm    Top Xtr Bot Xtr   Cpmin    Chinge    XCp    
 ------- -------- --------- --------- -------- ------- ------- -------- --------- ---------
 -30.000  -1.3457   0.21339   0.21258   0.0308  1.0000  0.0111  -14.2249   0.0000   0.0000   0.0000   0.2088
 -29.500  -1.3337   0.20885   0.20804   0.0262  1.0000  0.0113  -14.0228   0.0000   0.0000   0.0000   0.2076
 -29.000  -1.5198   0.16604   0.16488  -0.0052  1.0000  0.0114  -16.8604   0.0000   0.0000   0.0000   0.1861
 -28.500  -1.6709   0.13447   0.13301  -0.0270  1.0000  0.0115  -18.7250   0.0000   0.0000   0.0000   0.1754
 -28.000  -1.8201   0.10628   0.10450  -0.0448  1.0000  0.0115  -20.3165   0.0000   0.0000   0.0000   0.1693
 -27.500  -1.9573   0.08168   0.07958  -0.0590  1.0000  0.0115  -21.6093   0.0000   0.0000   0.0000   0.1660
 -27.000  -2.0013   0.07032   0.06808  -0.0650  1.0000  0.0116  -21.8376   0.0000   0.0000   0.0000   0.1656
 -26.500  -2.0328   0.06112   0.05875  -0.0693  1.0000  0.0116  -21.9098   0.0000   0.0000   0.0000   0.1659
 -26.000  -2.0513   0.05351   0.05104  -0.0726  1.0000  0.0116  -21.8373   0.0000   0.0000   0.0000   0.1664
 -25.500  -2.0396   0.04975   0.04722  -0.0738  1.0000  0.0117  -21.4681   0.0000   0.0000   0.0000   0.1672
 -25.000  -2.0237   0.04655   0.04397  -0.0745  1.0000  0.0117  -21.0592   0.0000   0.0000   0.0000   0.1681
 -24.500  -2.0408   0.03966   0.03697  -0.0767  1.0000  0.0117  -20.9485   0.0000   0.0000   0.0000   0.1690
 -24.000  -2.0246   0.03650   0.03376  -0.0772  1.0000  0.0117  -20.5345   0.0000   0.0000   0.0000   0.1700
 -23.500  -2.0121   0.03302   0.03022  -0.0778  1.0000  0.0118  -20.1526   0.0000   0.0000   0.0000   0.1710
 -23.000  -1.9923   0.03049   0.02765  -0.0778  1.0000  0.0118  -19.7081   0.0000   0.0000   0.0000   0.1720
 -22.500  -1.9714   0.02807   0.02518  -0.0777  1.0000  0.0118  -19.2540   0.0000   0.0000   0.0000   0.1731
 -22.000  -1.9424   0.02626   0.02335  -0.0776  0.9998  0.0118  -18.7411   0.0000   0.0000   0.0000   0.1739
 -21.500  -1.9195   0.02393   0.02097  -0.0777  0.9994  0.0119  -18.2836   0.0000   0.0000   0.0000   0.1747
 -21.000  -1.8879   0.02248   0.01949  -0.0775  0.9990  0.0119  -17.7593   0.0000   0.0000   0.0000   0.1755
 -20.500  -1.8536   0.02107   0.01805  -0.0775  0.9980  0.0119  -17.2222   0.0000   0.0000   0.0000   0.1760
 -20.000  -1.8214   0.01934   0.01629  -0.0780  0.9936  0.0119  -16.7097   0.0000   0.0000   0.0000   0.1763
 -19.500  -1.7840   0.01818   0.01508  -0.0781  0.9836  0.0119  -16.1640   0.0000   0.0000   0.0000   0.1766
 -19.000  -1.7431   0.01701   0.01388  -0.0787  0.9750  0.0119  -15.6040   0.0000   0.0000   0.0000   0.1764
 -18.500  -1.7013   0.01578   0.01264  -0.0797  0.9749  0.0119  -15.0432   0.0000   0.0000   0.0000   0.1759
 -18.000  -1.6552   0.01485   0.01170  -0.0806  0.9748  0.0119  -14.4609   0.0000   0.0000   0.0000   0.1752
 -17.500  -1.6078   0.01385   0.01069  -0.0820  0.9746  0.0119  -13.8812   0.0000   0.0000   0.0000   0.1740
 -17.000  -1.5570   0.01304   0.00988  -0.0835  0.9745  0.0120  -13.2881   0.0000   0.0000   0.0000   0.1725
 -16.500  -1.5040   0.01224   0.00909  -0.0853  0.9743  0.0120  -12.6928   0.0000   0.0000   0.0000   0.1704
 -16.000  -1.4483   0.01164   0.00852  -0.0874  0.9742  0.0121  -12.0661   0.0000   0.0000   0.0000   0.1678
 -15.500  -1.3908   0.01093   0.00781  -0.0899  0.9739  0.0121  -11.4721   0.0000   0.0000   0.0000   0.1646
 -15.000  -1.3325   0.01023   0.00711  -0.0925  0.9736  0.0121  -10.8850   0.0000   0.0000   0.0000   0.1607
 -14.500  -1.2730   0.00960   0.00648  -0.0951  0.9731  0.0121  -10.3045   0.0000   0.0000   0.0000   0.1564
 -14.000  -1.2119   0.00896   0.00582  -0.0979  0.9725  0.0121  -9.7414   0.0000   0.0000   0.0000   0.1511
 -13.500  -1.1502   0.00842   0.00529  -0.1008  0.9714  0.0121  -9.1697   0.0000   0.0000   0.0000   0.1451
 -13.000  -1.0888   0.00796   0.00484  -0.1033  0.9690  0.0122  -8.6114   0.0000   0.0000   0.0000   0.1387
 -12.500  -1.0290   0.00757   0.00446  -0.1051  0.9651  0.0122  -8.0785   0.0000   0.0000   0.0000   0.1321
 -12.000  -0.9692   0.00722   0.00410  -0.1069  0.9601  0.0122  -7.5587   0.0000   0.0000   0.0000   0.1247
 -11.500  -0.9092   0.00689   0.00377  -0.1086  0.9538  0.0122  -7.0537   0.0000   0.0000   0.0000   0.1162
 -11.000  -0.8489   0.00657   0.00347  -0.1103  0.9500  0.0122  -6.5618   0.0000   0.0000   0.0000   0.1063
 -10.500  -0.7886   0.00627   0.00320  -0.1119  0.9498  0.0122  -6.0842   0.0000   0.0000   0.0000   0.0948
 -10.000  -0.7283   0.00599   0.00294  -0.1135  0.9494  0.0122  -5.6211   0.0000   0.0000   0.0000   0.0814
  -9.500  -0.6680   0.00573   0.00270  -0.1150  0.9483  0.0122  -5.1761   0.0000   0.0000   0.0000   0.0655
  -9.000  -0.6084   0.00550   0.00247  -0.1163  0.9406  0.0123  -4.7439   0.0000   0.0000   0.0000   0.0469
  -8.500  -0.5491   0.00531   0.00226  -0.1174  0.9241  0.0123  -4.3283   0.0000   0.0000   0.0000   0.0245
  -8.000  -0.4903   0.00517   0.00208  -0.1184  0.9017  0.0123  -3.9284   0.0000   0.0000   0.0000  -0.0031
  -7.500  -0.4314   0.00506   0.00191  -0.1194  0.8759  0.0123  -3.5426   0.0000   0.0000   0.0000  -0.0383
  -7.000  -0.3784   0.00530   0.00181  -0.1191  0.7487  0.0124  -3.1914   0.0000   0.0000   0.0000  -0.0764
  -6.500  -0.3267   0.00572   0.00174  -0.1187  0.5386  0.0124  -2.8587   0.0000   0.0000   0.0000  -0.1250
  -6.000  -0.2712   0.00597   0.00165  -0.1189  0.3543  0.0124  -2.5284   0.0000   0.0000   0.0000  -0.2008
  -5.500  -0.2116   0.00590   0.00153  -0.1200  0.3330  0.0124  -2.1999   0.0000   0.0000   0.0000  -0.3305
  -5.000  -0.1534   0.00598   0.00143  -0.1207  0.2420  0.0125  -1.8910   0.0000   0.0000   0.0000  -0.5530
  -4.500  -0.0948   0.00604   0.00137  -0.1214  0.1747  0.0125  -1.5966   0.0000   0.0000   0.0000  -1.0537
  -4.000  -0.0366   0.00618   0.00133  -0.1221  0.0782  0.0135  -1.3192   0.0000   0.0000   0.0000  -3.1284
  -3.500   0.0227   0.00619   0.00128  -0.1229  0.0488  0.0149  -1.0536   0.0000   0.0000   0.0000   5.7168
  -3.000   0.0822   0.00619   0.00125  -0.1237  0.0389  0.0163  -0.8144   0.0000   0.0000   0.0000   1.7685
  -2.500   0.1419   0.00617   0.00122  -0.1246  0.0368  0.0179  -0.6665   0.0000   0.0000   0.0000   1.1340
  -2.000   0.2012   0.00619   0.00122  -0.1253  0.0239  0.0197  -0.5252   0.0000   0.0000   0.0000   0.8758
  -1.500   0.2607   0.00620   0.00122  -0.1261  0.0208  0.0219  -0.5213   0.0000   0.0000   0.0000   0.7349
  -1.000   0.3202   0.00621   0.00123  -0.1268  0.0187  0.0283  -0.6633   0.0000   0.0000   0.0000   0.6463
  -0.500   0.3798   0.00622   0.00124  -0.1276  0.0170  0.0371  -0.8355   0.0000   0.0000   0.0000   0.5854
   0.000   0.4388   0.00626   0.00127  -0.1282  0.0156  0.0410  -1.0923   0.0000   0.0000   0.0000   0.5410
   0.500   0.4982   0.00628   0.00131  -0.1289  0.0142  0.0510  -1.3665   0.0000   0.0000   0.0000   0.5071
   1.000   0.5578   0.00630   0.00136  -0.1296  0.0130  0.0754  -1.6574   0.0000   0.0000   0.0000   0.4803
   2.000   0.6800   0.00622   0.00148  -0.1319  0.0124  0.2187  -2.2966   0.0000   0.0000   0.0000   0.4410
   2.500   0.7384   0.00630   0.00157  -0.1323  0.0124  0.2390  -2.6343   0.0000   0.0000   0.0000   0.4258
   3.000   0.7986   0.00631   0.00167  -0.1332  0.0124  0.2980  -2.9929   0.0000   0.0000   0.0000   0.4130
   3.500   0.8621   0.00616   0.00178  -0.1350  0.0123  0.4540  -3.3782   0.0000   0.0000   0.0000   0.4024
   4.000   0.9223   0.00614   0.00190  -0.1359  0.0123  0.5517  -3.7704   0.0000   0.0000   0.0000   0.3927
   4.500   0.9813   0.00619   0.00206  -0.1365  0.0123  0.6167  -4.1763   0.0000   0.0000   0.0000   0.3840
   5.500   1.0941   0.00658   0.00241  -0.1362  0.0122  0.6250  -5.0132   0.0000   0.0000   0.0000   0.3684
   6.000   1.1504   0.00677   0.00261  -0.1361  0.0122  0.6441  -5.4521   0.0000   0.0000   0.0000   0.3616
   6.500   1.2061   0.00699   0.00281  -0.1358  0.0122  0.6480  -5.9032   0.0000   0.0000   0.0000   0.3553
   7.000   1.2614   0.00723   0.00303  -0.1354  0.0122  0.6490  -6.3683   0.0000   0.0000   0.0000   0.3495
   7.500   1.3165   0.00748   0.00326  -0.1350  0.0122  0.6493  -6.8467   0.0000   0.0000   0.0000   0.3441
   8.000   1.3713   0.00773   0.00349  -0.1346  0.0122  0.6494  -7.3383   0.0000   0.0000   0.0000   0.3390
   8.500   1.4259   0.00800   0.00374  -0.1341  0.0122  0.6494  -7.8424   0.0000   0.0000   0.0000   0.3342
   9.000   1.4801   0.00828   0.00401  -0.1335  0.0122  0.6494  -8.3608   0.0000   0.0000   0.0000   0.3297
   9.500   1.5340   0.00857   0.00429  -0.1329  0.0121  0.6495  -8.8898   0.0000   0.0000   0.0000   0.3253
  10.000   1.5876   0.00887   0.00459  -0.1322  0.0121  0.6495  -9.4296   0.0000   0.0000   0.0000   0.3212
  10.500   1.6407   0.00919   0.00490  -0.1314  0.0121  0.6495  -9.9804   0.0000   0.0000   0.0000   0.3172
  11.000   1.6935   0.00952   0.00522  -0.1305  0.0121  0.6495  -10.5433   0.0000   0.0000   0.0000   0.3134
  11.500   1.7457   0.00988   0.00558  -0.1296  0.0121  0.6496  -11.1118   0.0000   0.0000   0.0000   0.3097
  12.000   1.7974   0.01025   0.00595  -0.1286  0.0121  0.6496  -11.6926   0.0000   0.0000   0.0000   0.3062
  12.500   1.8487   0.01064   0.00634  -0.1275  0.0121  0.6496  -12.2826   0.0000   0.0000   0.0000   0.3027
  13.000   1.8993   0.01104   0.00676  -0.1263  0.0121  0.6496  -12.8820   0.0000   0.0000   0.0000   0.2993
  13.500   1.9503   0.01134   0.00703  -0.1252  0.0120  0.6497  -13.5157   0.0000   0.0000   0.0000   0.2960
  14.000   1.9999   0.01175   0.00744  -0.1238  0.0120  0.6497  -14.1369   0.0000   0.0000   0.0000   0.2927
  14.500   2.0488   0.01219   0.00788  -0.1223  0.0119  0.6497  -14.7620   0.0000   0.0000   0.0000   0.2895
  15.000   2.0968   0.01265   0.00835  -0.1207  0.0119  0.6498  -15.3931   0.0000   0.0000   0.0000   0.2863
  15.500   2.1440   0.01312   0.00884  -0.1189  0.0119  0.6498  -16.0295   0.0000   0.0000   0.0000   0.2832
  16.000   2.1902   0.01362   0.00935  -0.1169  0.0119  0.6498  -16.6699   0.0000   0.0000   0.0000   0.2800
  16.500   2.2351   0.01417   0.00992  -0.1148  0.0119  0.6498  -17.3080   0.0000   0.0000   0.0000   0.2769
  17.000   2.2788   0.01472   0.01050  -0.1124  0.0119  0.6498  -17.9505   0.0000   0.0000   0.0000   0.2738
  17.500   2.3211   0.01530   0.01111  -0.1098  0.0119  0.6499  -18.5931   0.0000   0.0000   0.0000   0.2706
  18.000   2.3616   0.01591   0.01174  -0.1069  0.0119  0.6499  -19.2326   0.0000   0.0000   0.0000   0.2674
  18.500   2.4001   0.01656   0.01242  -0.1037  0.0119  0.6499  -19.8658   0.0000   0.0000   0.0000   0.2642
  19.000   2.4332   0.01724   0.01313  -0.0995  0.0119  0.6499  -20.4679   0.0000   0.0000   0.0000   0.2607
  19.500   2.4557   0.01796   0.01390  -0.0933  0.0118  0.6500  -21.0015   0.0000   0.0000   0.0000   0.2567
  20.000   2.4794   0.01878   0.01477  -0.0876  0.0118  0.6500  -21.5458   0.0000   0.0000   0.0000   0.2529
  20.500   2.5068   0.01966   0.01568  -0.0827  0.0118  0.6500  -22.1216   0.0000   0.0000   0.0000   0.2493
  21.000   2.5247   0.02076   0.01684  -0.0765  0.0118  0.6540  -22.6300   0.0000   0.0000   0.0000   0.2454
  21.500   2.5489   0.02186   0.01799  -0.0717  0.0118  0.6590  -23.1901   0.0000   0.0000   0.0000   0.2420
  22.000   2.5650   0.02325   0.01945  -0.0658  0.0118  0.6628  -23.6898   0.0000   0.0000   0.0000   0.2383
  22.500   2.5848   0.02463   0.02089  -0.0608  0.0117  0.6661  -24.2208   0.0000   0.0000   0.0000   0.2349
  23.000   2.5966   0.02649   0.02282  -0.0552  0.0117  0.6688  -24.6865   0.0000   0.0000   0.0000   0.2313
  23.500   2.6078   0.02853   0.02493  -0.0500  0.0117  0.6709  -25.1491   0.0000   0.0000   0.0000   0.2279
  24.000   2.6178   0.03076   0.02723  -0.0452  0.0117  0.6721  -25.6010   0.0000   0.0000   0.0000   0.2246
  24.500   2.6221   0.03351   0.03006  -0.0404  0.0117  0.6727  -26.0033   0.0000   0.0000   0.0000   0.2213
  25.000   2.6257   0.03673   0.03336  -0.0365  0.0117  0.6731  -26.3945   0.0000   0.0000   0.0000   0.2184
  25.500   2.6275   0.04048   0.03718  -0.0334  0.0116  0.6734  -26.7642   0.0000   0.0000   0.0000   0.2157
  26.000   2.6237   0.04512   0.04192  -0.0310  0.0116  0.6736  -27.0754   0.0000   0.0000   0.0000   0.2132
  26.500   2.6174   0.05045   0.04734  -0.0297  0.0116  0.6738  -27.3544   0.0000   0.0000   0.0000   0.2112
  27.000   2.5934   0.05825   0.05527  -0.0301  0.0115  0.6739  -27.4428   0.0000   0.0000   0.0000   0.2097
  27.500   2.5508   0.06935   0.06653  -0.0332  0.0115  0.6740  -27.3127   0.0000   0.0000   0.0000   0.2093
  28.000   2.4795   0.08499   0.08238  -0.0400  0.0115  0.6740  -26.8361   0.0000   0.0000   0.0000   0.2104


