xflr5 v6.57

 Calculated polar for: KC-135 Winglet (supercritical Whitcomb)

 1 1 Reynolds number fixed          Mach number fixed         

 xtrf =   1.000 (top)        1.000 (bottom)
 Mach =   0.000     Re =    40.000 e 6     Ncrit =   9.000

  alpha     CL        CD       CDp       Cm    Top Xtr Bot Xtr   Cpmin    Chinge    XCp    
 ------- -------- --------- --------- -------- ------- ------- -------- --------- ---------
 -24.000  -0.8619   0.26164   0.26131   0.0658  1.0000  0.0020  -12.7948   0.0000   0.0000   0.0000   0.3003
 -23.500  -0.8486   0.25520   0.25487   0.0612  1.0000  0.0020  -12.6172   0.0000   0.0000   0.0000   0.2969
 -23.000  -0.8347   0.24896   0.24863   0.0567  1.0000  0.0020  -12.3736   0.0000   0.0000   0.0000   0.2937
 -22.500  -0.8206   0.24280   0.24247   0.0523  1.0000  0.0020  -12.0971   0.0000   0.0000   0.0000   0.2906
 -22.000  -0.8062   0.23671   0.23638   0.0481  1.0000  0.0020  -11.7924   0.0000   0.0000   0.0000   0.2874
 -21.500  -0.7913   0.23081   0.23049   0.0440  1.0000  0.0020  -11.4339   0.0000   0.0000   0.0000   0.2844
 -21.000  -0.7742   0.22582   0.22549   0.0404  1.0000  0.0020  -10.8528   0.0000   0.0000   0.0000   0.2820
 -17.500  -0.6464   0.19453   0.19421   0.0182  1.0000  0.0018  -6.2994   0.0000   0.0000   0.0000   0.2653
 -17.000  -0.6315   0.18847   0.18815   0.0150  1.0000  0.0018  -6.0045   0.0000   0.0000   0.0000   0.2614
 -16.500  -0.6170   0.18236   0.18205   0.0118  1.0000  0.0018  -5.7191   0.0000   0.0000   0.0000   0.2574
 -16.000  -0.6028   0.17624   0.17593   0.0087  1.0000  0.0018  -5.4468   0.0000   0.0000   0.0000   0.2534
 -15.500  -0.5896   0.17017   0.16986   0.0059  1.0000  0.0018  -5.1934   0.0000   0.0000   0.0000   0.2494
 -15.000  -0.5762   0.16396   0.16365   0.0030  1.0000  0.0018  -4.9538   0.0000   0.0000   0.0000   0.2451
 -14.500  -0.5628   0.15757   0.15726   0.0000  1.0000  0.0018  -4.7305   0.0000   0.0000   0.0000   0.2405
 -14.000  -0.5500   0.15109   0.15079  -0.0029  1.0000  0.0018  -4.5263   0.0000   0.0000   0.0000   0.2357
 -13.500  -0.5379   0.14460   0.14429  -0.0057  1.0000  0.0019  -4.3415   0.0000   0.0000   0.0000   0.2309
 -13.000  -0.5264   0.13812   0.13782  -0.0084  0.9990  0.0019  -4.1723   0.0000   0.0000   0.0000   0.2259
 -12.500  -0.5124   0.13138   0.13103  -0.0118  0.9725  0.0019  -3.9897   0.0000   0.0000   0.0000   0.2192
   1.000   0.5712   0.00000  -0.00409  -0.0957  0.0256  0.0052  -0.8400   0.0000   0.0000   0.0000   0.4161
   1.500   0.6213   0.00000  -0.00413  -0.0956  0.0186  0.0114  -0.9934   0.0000   0.0000   0.0000   0.4022
   2.000   0.6718   0.00000  -0.00404  -0.0955  0.0147  0.1151  -1.1554   0.0000   0.0000   0.0000   0.3903
   2.500   0.7231   0.00000  -0.00349  -0.0959  0.0125  0.5009  -1.3758   0.0000   0.0000   0.0000   0.3804
   3.000   0.7728   0.00000  -0.00350  -0.0958  0.0021  0.5602  -1.6784   0.0000   0.0000   0.0000   0.3714
   3.500   0.8222   0.00000  -0.00351  -0.0955  0.0021  0.5737  -2.0102   0.0000   0.0000   0.0000   0.3633
   4.000   0.8715   0.00000  -0.00355  -0.0952  0.0021  0.5750  -2.3598   0.0000   0.0000   0.0000   0.3559
   4.500   0.9207   0.00000  -0.00350  -0.0948  0.0122  0.5825  -2.7484   0.0000   0.0000   0.0000   0.3492
   5.500   1.1733   0.00732   0.00298  -0.1281  0.0019  0.6225  -3.8814   0.0000   0.0000   0.0000   0.3537
   6.000   1.2281   0.00766   0.00330  -0.1280  0.0007  0.6246  -4.3340   0.0000   0.0000   0.0000   0.3482
   6.500   1.2831   0.00793   0.00357  -0.1280  0.0010  0.6410  -4.8073   0.0000   0.0000   0.0000   0.3431
   7.000   1.3374   0.00830   0.00395  -0.1279  0.0004  0.6565  -5.2967   0.0000   0.0000   0.0000   0.3382
   7.500   1.3914   0.00867   0.00433  -0.1277  0.0001  0.6730  -6.1299   0.0000   0.0000   0.0000   0.3337
   8.000   1.4450   0.00906   0.00471  -0.1274  0.0000  0.6753  -7.1257   0.0000   0.0000   0.0000   0.3294
   8.500   1.4983   0.00945   0.00510  -0.1271  0.0000  0.6884  -8.1834   0.0000   0.0000   0.0000   0.3253
   9.000   1.5513   0.00986   0.00551  -0.1267  0.0001  0.6988  -9.3023   0.0000   0.0000   0.0000   0.3214
   9.500   1.6037   0.01030   0.00597  -0.1263  0.0002  0.7210  -10.4809   0.0000   0.0000   0.0000   0.3176
  10.000   1.6554   0.01080   0.00647  -0.1257  0.0002  0.7238  -11.7091   0.0000   0.0000   0.0000   0.3140
  10.500   1.7064   0.01134   0.00701  -0.1250  0.0002  0.7247  -12.9906   0.0000   0.0000   0.0000   0.3104
  11.000   1.7567   0.01190   0.00758  -0.1242  0.0002  0.7280  -14.3236   0.0000   0.0000   0.0000   0.3070
  11.500   1.8063   0.01251   0.00820  -0.1233  0.0002  0.7373  -15.7064   0.0000   0.0000   0.0000   0.3036
  12.000   1.8550   0.01314   0.00886  -0.1222  0.0002  0.7457  -17.1364   0.0000   0.0000   0.0000   0.3003
  12.500   1.9029   0.01382   0.00958  -0.1211  0.0002  0.7661  -18.6106   0.0000   0.0000   0.0000   0.2971
  13.000   1.9495   0.01456   0.01035  -0.1197  0.0002  0.7740  -20.1226   0.0000   0.0000   0.0000   0.2938
  13.500   1.9947   0.01535   0.01117  -0.1181  0.0002  0.7796  -21.6680   0.0000   0.0000   0.0000   0.2906
  14.000   2.0386   0.01619   0.01205  -0.1162  0.0002  0.7934  -23.2439   0.0000   0.0000   0.0000   0.2874
  14.500   2.0806   0.01710   0.01300  -0.1141  0.0002  0.8055  -24.8410   0.0000   0.0000   0.0000   0.2842
  15.000   2.1206   0.01806   0.01402  -0.1117  0.0002  0.8227  -26.4518   0.0000   0.0000   0.0000   0.2809
  15.500   2.1577   0.01912   0.01511  -0.1088  0.0002  0.8246  -28.0604   0.0000   0.0000   0.0000   0.2776
  16.000   2.1916   0.02026   0.01631  -0.1054  0.0002  0.8325  -29.6527   0.0000   0.0000   0.0000   0.2742
  16.500   2.2174   0.02147   0.01759  -0.1006  0.0002  0.8444  -31.1383   0.0000   0.0000   0.0000   0.2703
  17.000   2.2347   0.02281   0.01901  -0.0944  0.0002  0.8639  -32.4952   0.0000   0.0000   0.0000   0.2661
  17.500   2.2414   0.02441   0.02076  -0.0865  0.0002  0.9174  -33.6730   0.0000   0.0000   0.0000   0.2615
  18.000   2.2474   0.02636   0.02288  -0.0796  0.0002  1.0000  -34.8481   0.0000   0.0000   0.0000   0.2572
  18.500   2.2520   0.02883   0.02544  -0.0734  0.0002  1.0000  -36.0084   0.0000   0.0000   0.0000   0.2532
  19.000   2.2559   0.03177   0.02846  -0.0680  0.0002  1.0000  -37.1621   0.0000   0.0000   0.0000   0.2495
  19.500   2.2535   0.03549   0.03228  -0.0630  0.0002  1.0000  -38.1890   0.0000   0.0000   0.0000   0.2461
  20.000   2.2473   0.03979   0.03669  -0.0586  0.0002  1.0000  -39.1330   0.0000   0.0000   0.0000   0.2430
  20.500   2.2351   0.04527   0.04229  -0.0553  0.0002  1.0000  -39.9380   0.0000   0.0000   0.0000   0.2403
  21.000   2.2172   0.05208   0.04923  -0.0533  0.0002  1.0000  -40.5916   0.0000   0.0000   0.0000   0.2382
  21.500   2.1903   0.06067   0.05797  -0.0530  0.0002  1.0000  -41.0041   0.0000   0.0000   0.0000   0.2368
  22.000   2.1460   0.07291   0.07039  -0.0556  0.0002  1.0000  -40.9326   0.0000   0.0000   0.0000   0.2369
  22.500   2.0759   0.09087   0.08858  -0.0628  0.0002  1.0000  -40.0869   0.0000   0.0000   0.0000   0.2396
  23.000   1.9350   0.12275   0.12084  -0.0799  0.0002  1.0000  -37.0601   0.0000   0.0000   0.0000   0.2490
  24.000   1.3705   0.28575   0.28521  -0.1970  0.0002  1.0000  -15.6258   0.0000   0.0000   0.0000   0.3545
  26.500   0.8615   0.30371   0.30354  -0.1514  0.0002  1.0000  -5.3195   0.0000   0.0000   0.0000   0.3934
  27.000   0.8678   0.31178   0.31161  -0.1544  0.0002  1.0000  -5.4762   0.0000   0.0000   0.0000   0.3943
  27.500   0.8739   0.31974   0.31958  -0.1575  0.0002  1.0000  -5.6407   0.0000   0.0000   0.0000   0.3953
  28.000   0.8796   0.32761   0.32745  -0.1605  0.0002  1.0000  -5.8114   0.0000   0.0000   0.0000   0.3961
  28.500   0.8850   0.33539   0.33523  -0.1635  0.0002  1.0000  -5.9874   0.0000   0.0000   0.0000   0.3970
  29.000   0.8901   0.34310   0.34295  -0.1665  0.0002  1.0000  -6.1658   0.0000   0.0000   0.0000   0.3978
  29.500   0.8948   0.35069   0.35055  -0.1694  0.0002  1.0000  -6.3497   0.0000   0.0000   0.0000   0.3986
  30.000   0.8992   0.35819   0.35805  -0.1724  0.0002  1.0000  -6.5370   0.0000   0.0000   0.0000   0.3994


