xflr5 v6.57

 Calculated polar for: LOCKHEED-GEORGIA SUPERCRITICAL AIRFOIL

 1 1 Reynolds number fixed          Mach number fixed         

 xtrf =   1.000 (top)        1.000 (bottom)
 Mach =   0.000     Re =    40.000 e 6     Ncrit =   9.000

  alpha     CL        CD       CDp       Cm    Top Xtr Bot Xtr   Cpmin    Chinge    XCp    
 ------- -------- --------- --------- -------- ------- ------- -------- --------- ---------
 -15.000  -1.5228   0.01392   0.01116  -0.0159  1.0000  0.0038  -26.5837   0.0000   0.0000   0.0000   0.2234
 -14.500  -1.4790   0.01270   0.00984  -0.0142  1.0000  0.0038  -25.3418   0.0000   0.0000   0.0000   0.2251
 -14.000  -1.4324   0.01173   0.00880  -0.0129  0.9999  0.0038  -24.0670   0.0000   0.0000   0.0000   0.2265
 -13.500  -1.3826   0.01090   0.00790  -0.0121  0.9966  0.0038  -22.7721   0.0000   0.0000   0.0000   0.2276
 -13.000  -1.3302   0.01017   0.00711  -0.0118  0.9814  0.0039  -21.4707   0.0000   0.0000   0.0000   0.2283
 -12.500  -1.2789   0.00952   0.00643  -0.0111  0.9725  0.0039  -20.2121   0.0000   0.0000   0.0000   0.2292
 -12.000  -1.2284   0.00899   0.00581  -0.0101  0.9490  0.0039  -18.9948   0.0000   0.0000   0.0000   0.2304
 -11.500  -1.1767   0.00851   0.00525  -0.0094  0.9248  0.0039  -17.7928   0.0000   0.0000   0.0000   0.2313
 -11.000  -1.1239   0.00808   0.00475  -0.0088  0.8998  0.0039  -16.6128   0.0000   0.0000   0.0000   0.2321
 -10.500  -1.0703   0.00769   0.00429  -0.0084  0.8749  0.0039  -15.4593   0.0000   0.0000   0.0000   0.2328
 -10.000  -1.0162   0.00735   0.00388  -0.0081  0.8470  0.0039  -14.3363   0.0000   0.0000   0.0000   0.2333
  -9.500  -0.9619   0.00709   0.00350  -0.0077  0.7950  0.0039  -13.2478   0.0000   0.0000   0.0000   0.2337
  -9.000  -0.9074   0.00688   0.00315  -0.0075  0.7328  0.0040  -12.1957   0.0000   0.0000   0.0000   0.2341
  -8.500  -0.8525   0.00668   0.00283  -0.0073  0.6710  0.0040  -11.1779   0.0000   0.0000   0.0000   0.2343
  -8.000  -0.7976   0.00657   0.00255  -0.0071  0.5836  0.0040  -10.1996   0.0000   0.0000   0.0000   0.2344
  -7.500  -0.7418   0.00638   0.00228  -0.0070  0.5434  0.0040  -9.2547   0.0000   0.0000   0.0000   0.2343
  -7.000  -0.6859   0.00623   0.00205  -0.0070  0.4977  0.0040  -8.3466   0.0000   0.0000   0.0000   0.2340
  -6.500  -0.6297   0.00607   0.00184  -0.0070  0.4694  0.0040  -7.4760   0.0000   0.0000   0.0000   0.2335
  -6.000  -0.5735   0.00599   0.00165  -0.0070  0.4128  0.0041  -6.6479   0.0000   0.0000   0.0000   0.2327
  -5.500  -0.5168   0.00584   0.00148  -0.0071  0.3944  0.0041  -5.8557   0.0000   0.0000   0.0000   0.2315
  -5.000  -0.4601   0.00575   0.00132  -0.0071  0.3645  0.0041  -5.1051   0.0000   0.0000   0.0000   0.2299
  -4.500  -0.4034   0.00568   0.00118  -0.0072  0.3175  0.0041  -4.3984   0.0000   0.0000   0.0000   0.2277
  -4.000  -0.3464   0.00561   0.00107  -0.0074  0.2843  0.0042  -3.7328   0.0000   0.0000   0.0000   0.2245
  -3.500  -0.2893   0.00554   0.00096  -0.0075  0.2704  0.0042  -3.1092   0.0000   0.0000   0.0000   0.2198
  -2.500  -0.1748   0.00544   0.00080  -0.0079  0.2329  0.0045  -1.9919   0.0000   0.0000   0.0000   0.2005
  -2.000  -0.1175   0.00541   0.00074  -0.0081  0.2119  0.0059  -1.4979   0.0000   0.0000   0.0000   0.1762
  -1.500  -0.0601   0.00537   0.00069  -0.0084  0.1898  0.0078  -1.1576   0.0000   0.0000   0.0000   0.1053
  -1.000  -0.0025   0.00534   0.00065  -0.0086  0.1859  0.0071  -0.8512   0.0000   0.0000   0.0000  -3.2599
  -0.500   0.0548   0.00534   0.00063  -0.0089  0.1726  0.0091  -0.5677   0.0000   0.0000   0.0000   0.4113
   0.000   0.1123   0.00529   0.00060  -0.0091  0.1597  0.0217  -0.5888   0.0000   0.0000   0.0000   0.3294
   0.500   0.1697   0.00524   0.00059  -0.0094  0.1562  0.0411  -0.6723   0.0000   0.0000   0.0000   0.3029
   1.000   0.2263   0.00515   0.00060  -0.0096  0.1434  0.1151  -0.7575   0.0000   0.0000   0.0000   0.2894
   1.500   0.2823   0.00488   0.00061  -0.0097  0.1300  0.2585  -0.8551   0.0000   0.0000   0.0000   0.2811
   2.500   0.3962   0.00476   0.00068  -0.0102  0.1220  0.3900  -1.0610   0.0000   0.0000   0.0000   0.2721
   3.000   0.4526   0.00471   0.00075  -0.0104  0.1115  0.4718  -1.1728   0.0000   0.0000   0.0000   0.2690
   3.500   0.5093   0.00482   0.00086  -0.0107  0.0944  0.5089  -1.2967   0.0000   0.0000   0.0000   0.2666
   4.000   0.5658   0.00490   0.00098  -0.0109  0.0834  0.5562  -1.4234   0.0000   0.0000   0.0000   0.2646
   4.500   0.6221   0.00493   0.00109  -0.0112  0.0778  0.6197  -1.5533   0.0000   0.0000   0.0000   0.2628
   5.000   0.6787   0.00497   0.00120  -0.0114  0.0703  0.6703  -1.6902   0.0000   0.0000   0.0000   0.2613
   5.500   0.7353   0.00506   0.00133  -0.0117  0.0654  0.7074  -1.8467   0.0000   0.0000   0.0000   0.2600
   6.000   0.7910   0.00524   0.00152  -0.0119  0.0518  0.7477  -2.0047   0.0000   0.0000   0.0000   0.2586
   6.500   0.8461   0.00552   0.00178  -0.0120  0.0375  0.7882  -2.1987   0.0000   0.0000   0.0000   0.2572
   7.000   0.9012   0.00577   0.00204  -0.0121  0.0270  0.8222  -2.4967   0.0000   0.0000   0.0000   0.2558
   7.500   0.9572   0.00591   0.00221  -0.0123  0.0266  0.8471  -2.8419   0.0000   0.0000   0.0000   0.2548
   8.000   1.0120   0.00622   0.00251  -0.0124  0.0217  0.8707  -3.1987   0.0000   0.0000   0.0000   0.2535
   8.500   1.0671   0.00646   0.00276  -0.0125  0.0169  0.8938  -3.5958   0.0000   0.0000   0.0000   0.2524
   9.000   1.1205   0.00688   0.00316  -0.0124  0.0095  0.9159  -4.0713   0.0000   0.0000   0.0000   0.2510
   9.500   1.1732   0.00732   0.00359  -0.0121  0.0056  0.9381  -4.5676   0.0000   0.0000   0.0000   0.2496
  10.000   1.2269   0.00761   0.00390  -0.0121  0.0043  0.9535  -5.0947   0.0000   0.0000   0.0000   0.2484
  10.500   1.2794   0.00791   0.00421  -0.0118  0.0043  0.9734  -5.6398   0.0000   0.0000   0.0000   0.2470
  11.000   1.3334   0.00825   0.00455  -0.0119  0.0042  0.9831  -6.3159   0.0000   0.0000   0.0000   0.2459
  11.500   1.3890   0.00863   0.00492  -0.0124  0.0042  0.9967  -7.0786   0.0000   0.0000   0.0000   0.2451
  12.500   1.4947   0.00946   0.00572  -0.0125  0.0040  1.0000  -8.6749   0.0000   0.0000   0.0000   0.2427
  13.000   1.5433   0.01019   0.00643  -0.0118  0.0027  1.0000  -9.4882   0.0000   0.0000   0.0000   0.2411
  13.500   1.5923   0.01084   0.00706  -0.0112  0.0016  1.0000  -10.3369   0.0000   0.0000   0.0000   0.2396
  14.000   1.6415   0.01140   0.00761  -0.0107  0.0010  1.0000  -11.2230   0.0000   0.0000   0.0000   0.2381
  14.500   1.6896   0.01202   0.00823  -0.0101  0.0010  1.0000  -12.1321   0.0000   0.0000   0.0000   0.2366
  15.000   1.7367   0.01267   0.00887  -0.0094  0.0009  1.0000  -13.0632   0.0000   0.0000   0.0000   0.2350
  15.500   1.7812   0.01348   0.00969  -0.0083  0.0008  1.0000  -13.9997   0.0000   0.0000   0.0000   0.2332
  16.000   1.8237   0.01437   0.01060  -0.0070  0.0006  1.0000  -14.9438   0.0000   0.0000   0.0000   0.2313
  16.500   1.8642   0.01532   0.01156  -0.0054  0.0005  1.0000  -15.8942   0.0000   0.0000   0.0000   0.2293
  17.000   1.9013   0.01639   0.01265  -0.0034  0.0004  1.0000  -16.8353   0.0000   0.0000   0.0000   0.2271
  17.500   1.9356   0.01749   0.01378  -0.0010  0.0003  1.0000  -17.7711   0.0000   0.0000   0.0000   0.2247
  18.000   1.9604   0.01866   0.01499   0.0030  0.0002  1.0000  -18.6264   0.0000   0.0000   0.0000   0.2215
  18.500   1.9758   0.02004   0.01641   0.0081  0.0002  1.0000  -19.3929   0.0000   0.0000   0.0000   0.2178
  19.000   1.9887   0.02182   0.01825   0.0125  0.0002  1.0000  -20.1391   0.0000   0.0000   0.0000   0.2145
  19.500   2.0006   0.02404   0.02053   0.0160  0.0001  1.0000  -20.8782   0.0000   0.0000   0.0000   0.2115
  20.000   2.0077   0.02696   0.02352   0.0189  0.0001  1.0000  -21.5639   0.0000   0.0000   0.0000   0.2089
  20.500   2.0081   0.03089   0.02754   0.0207  0.0001  1.0000  -22.1616   0.0000   0.0000   0.0000   0.2066
  21.000   2.0029   0.03601   0.03276   0.0213  0.0001  1.0000  -22.6791   0.0000   0.0000   0.0000   0.2049
  21.500   1.9858   0.04323   0.04009   0.0200  0.0001  1.0000  -23.0187   0.0000   0.0000   0.0000   0.2040
  22.000   1.9472   0.05416   0.05120   0.0160  0.0001  1.0000  -23.0203   0.0000   0.0000   0.0000   0.2043
  22.500   1.8644   0.07263   0.06994   0.0073  0.0001  1.0000  -22.3054   0.0000   0.0000   0.0000   0.2069
  23.500   1.4167   0.16105   0.15940  -0.0402  0.0002  1.0000  -15.8023   0.0000   0.0000   0.0000   0.2367
  24.000   1.3365   0.18499   0.18355  -0.0556  0.0003  1.0000  -14.5569   0.0000   0.0000   0.0000   0.2490
  24.500   1.3388   0.19205   0.19064  -0.0606  0.0002  1.0000  -14.8643   0.0000   0.0000   0.0000   0.2511
  25.000   1.3124   0.20601   0.20471  -0.0703  0.0002  1.0000  -14.5151   0.0000   0.0000   0.0000   0.2582
  26.000   1.2775   0.23084   0.22971  -0.0886  0.0002  1.0000  -14.0170   0.0000   0.0000   0.0000   0.2716
  26.500   1.2447   0.24904   0.24805  -0.1017  0.0002  1.0000  -13.1917   0.0000   0.0000   0.0000   0.2833
  27.000   1.2535   0.25512   0.25414  -0.1069  0.0002  1.0000  -13.5219   0.0000   0.0000   0.0000   0.2852
  27.500   1.2260   0.27369   0.27285  -0.1201  0.0002  1.0000  -12.5923   0.0000   0.0000   0.0000   0.2974
  28.000   1.2367   0.27922   0.27839  -0.1252  0.0001  1.0000  -12.9430   0.0000   0.0000   0.0000   0.2990
  28.500   1.2166   0.29714   0.29644  -0.1375  0.0001  1.0000  -11.9823   0.0000   0.0000   0.0000   0.3106
  29.000   1.2269   0.30276   0.30206  -0.1429  0.0001  1.0000  -12.2864   0.0000   0.0000   0.0000   0.3122
  30.000   1.2178   0.32891   0.32836  -0.1615  0.0001  1.0000  -11.1623   0.0000   0.0000   0.0000   0.3269


