xflr5 v6.57

 Calculated polar for: WHITCOMB INTEGRAL SUPERCRITICAL AIRFOIL

 1 1 Reynolds number fixed          Mach number fixed         

 xtrf =   1.000 (top)        1.000 (bottom)
 Mach =   0.000     Re =     9.000 e 6     Ncrit =   9.000

  alpha     CL        CD       CDp       Cm    Top Xtr Bot Xtr   Cpmin    Chinge    XCp    
 ------- -------- --------- --------- -------- ------- ------- -------- --------- ---------
 -30.000  -1.0738   0.28632   0.28563   0.0787  1.0000  0.0085  -8.3074   0.0000   0.0000   0.0000   0.2653
 -29.500  -1.0558   0.28367   0.28298   0.0743  1.0000  0.0087  -7.9609   0.0000   0.0000   0.0000   0.2644
 -29.000  -1.0358   0.28151   0.28082   0.0703  1.0000  0.0088  -7.5694   0.0000   0.0000   0.0000   0.2641
 -28.500  -1.0160   0.27907   0.27839   0.0664  1.0000  0.0089  -7.1890   0.0000   0.0000   0.0000   0.2636
 -28.000  -0.9964   0.27626   0.27557   0.0626  1.0000  0.0090  -6.8193   0.0000   0.0000   0.0000   0.2630
 -27.500  -0.9768   0.27327   0.27259   0.0588  1.0000  0.0091  -6.4588   0.0000   0.0000   0.0000   0.2623
 -27.000  -0.9572   0.27019   0.26950   0.0550  1.0000  0.0091  -6.1080   0.0000   0.0000   0.0000   0.2615
 -26.500  -0.9373   0.26717   0.26648   0.0514  1.0000  0.0092  -5.7570   0.0000   0.0000   0.0000   0.2607
 -26.000  -0.9113   0.26657   0.26588   0.0487  1.0000  0.0089  -5.2651   0.0000   0.0000   0.0000   0.2615
 -25.500  -0.8919   0.26329   0.26259   0.0450  1.0000  0.0090  -4.9458   0.0000   0.0000   0.0000   0.2603
 -25.000  -0.8730   0.25971   0.25902   0.0413  1.0000  0.0092  -4.6480   0.0000   0.0000   0.0000   0.2588
 -24.500  -0.8547   0.25579   0.25509   0.0376  1.0000  0.0094  -4.3745   0.0000   0.0000   0.0000   0.2570
 -24.000  -0.8372   0.25149   0.25080   0.0339  1.0000  0.0096  -4.1266   0.0000   0.0000   0.0000   0.2550
 -23.500  -0.8243   0.24529   0.24458   0.0298  1.0000  0.0099  -4.0496   0.0000   0.0000   0.0000   0.2517
 -23.000  -0.8080   0.24157   0.24086   0.0271  1.0000  0.0101  -3.8389   0.0000   0.0000   0.0000   0.2506
 -22.500  -0.7965   0.23847   0.23777   0.0262  1.0000  0.0103  -3.6485   0.0000   0.0000   0.0000   0.2513
 -22.000  -0.7821   0.23490   0.23420   0.0244  1.0000  0.0105  -3.4501   0.0000   0.0000   0.0000   0.2509
 -21.500  -0.7664   0.23121   0.23052   0.0222  1.0000  0.0108  -3.2417   0.0000   0.0000   0.0000   0.2501
 -21.000  -0.7464   0.22747   0.22677   0.0193  1.0000  0.0110  -2.9881   0.0000   0.0000   0.0000   0.2482
 -20.500  -0.7152   0.22789   0.22719   0.0172  0.9999  0.0116  -2.3492   0.0000   0.0000   0.0000   0.2482
  -6.500  -0.3217   0.00611   0.00252  -0.1181  0.9614  0.0124  -2.7797   0.0000   0.0000   0.0000  -0.1291
  -6.000  -0.2595   0.00580   0.00219  -0.1198  0.9553  0.0124  -2.4552   0.0000   0.0000   0.0000  -0.2244
  -5.500  -0.1978   0.00556   0.00198  -0.1214  0.9499  0.0125  -2.1344   0.0000   0.0000   0.0000  -0.3782
  -5.000  -0.1389   0.00531   0.00178  -0.1222  0.9472  0.0177  -1.8417   0.0000   0.0000   0.0000  -0.6473
  -4.500  -0.0802   0.00512   0.00157  -0.1229  0.9242  0.0201  -1.5505   0.0000   0.0000   0.0000  -1.3082
  -4.000  -0.0423   0.00609   0.00162  -0.1192  0.6394  0.0221  -1.3227   0.0000   0.0000   0.0000  -2.6091
  -3.500   0.0095   0.00659   0.00159  -0.1187  0.4370  0.0247  -1.0750   0.0000   0.0000   0.0000  12.8555
  -3.000   0.0632   0.00714   0.00157  -0.1187  0.2067  0.0365  -0.8395   0.0000   0.0000   0.0000   2.1480
  -2.500   0.1213   0.00728   0.00155  -0.1193  0.1492  0.0376  -0.6921   0.0000   0.0000   0.0000   1.2411
  -2.000   0.1806   0.00735   0.00153  -0.1202  0.1039  0.0459  -0.5499   0.0000   0.0000   0.0000   0.9190
  -1.500   0.2414   0.00735   0.00151  -0.1215  0.0679  0.0733  -0.4986   0.0000   0.0000   0.0000   0.7546
  -1.000   0.3014   0.00739   0.00153  -0.1224  0.0454  0.0957  -0.6403   0.0000   0.0000   0.0000   0.6565
  -0.500   0.3625   0.00737   0.00154  -0.1237  0.0374  0.1371  -0.7954   0.0000   0.0000   0.0000   0.5907
   0.000   0.4255   0.00724   0.00154  -0.1254  0.0361  0.1929  -1.0573   0.0000   0.0000   0.0000   0.5436
   0.500   0.4968   0.00679   0.00153  -0.1295  0.0237  0.4081  -1.3545   0.0000   0.0000   0.0000   0.5090
   1.500   0.6225   0.00657   0.00169  -0.1329  0.0187  0.6300  -1.9669   0.0000   0.0000   0.0000   0.4609
   2.000   0.6794   0.00677   0.00187  -0.1329  0.0162  0.6447  -2.2819   0.0000   0.0000   0.0000   0.4426
   2.500   0.7357   0.00702   0.00208  -0.1327  0.0124  0.6484  -2.5941   0.0000   0.0000   0.0000   0.4270
   3.000   0.7916   0.00729   0.00234  -0.1324  0.0124  0.6494  -2.9271   0.0000   0.0000   0.0000   0.4135
   3.500   0.8472   0.00761   0.00268  -0.1320  0.0124  0.6498  -3.2600   0.0000   0.0000   0.0000   0.4016
  18.500   1.0682   0.24968   0.24853  -0.1679  0.0112  0.6634  -2.9992   0.0000   0.0000   0.0000   0.3863
  19.000   1.0878   0.25336   0.25222  -0.1705  0.0109  0.6640  -3.2819   0.0000   0.0000   0.0000   0.3846
  19.500   1.1058   0.25780   0.25666  -0.1735  0.0107  0.6646  -3.4971   0.0000   0.0000   0.0000   0.3836
  20.000   1.1233   0.26239   0.26126  -0.1767  0.0105  0.6653  -3.6980   0.0000   0.0000   0.0000   0.3828
  20.500   1.1406   0.26698   0.26586  -0.1800  0.0103  0.6661  -3.8965   0.0000   0.0000   0.0000   0.3821
  21.000   1.1578   0.27151   0.27039  -0.1833  0.0100  0.6669  -4.0971   0.0000   0.0000   0.0000   0.3813
  21.500   1.1726   0.27727   0.27617  -0.1878  0.0098  0.6677  -4.1201   0.0000   0.0000   0.0000   0.3820
  22.000   1.1896   0.28154   0.28045  -0.1918  0.0095  0.6685  -4.3395   0.0000   0.0000   0.0000   0.3818
  22.500   1.2069   0.28543   0.28434  -0.1957  0.0091  0.6694  -4.5805   0.0000   0.0000   0.0000   0.3813
  23.000   1.2239   0.28924   0.28816  -0.1995  0.0088  0.6702  -4.8305   0.0000   0.0000   0.0000   0.3808
  23.500   1.2409   0.29284   0.29177  -0.2032  0.0085  0.6710  -5.0974   0.0000   0.0000   0.0000   0.3800
  24.000   1.2578   0.29627   0.29520  -0.2068  0.0082  0.6718  -5.3796   0.0000   0.0000   0.0000   0.3792
  24.500   1.2772   0.29806   0.29700  -0.2094  0.0077  0.6724  -5.7642   0.0000   0.0000   0.0000   0.3769
  25.000   1.2950   0.30066   0.29961  -0.2125  0.0076  0.6730  -6.1081   0.0000   0.0000   0.0000   0.3753
  25.500   1.3124   0.30338   0.30234  -0.2157  0.0076  0.6734  -6.4512   0.0000   0.0000   0.0000   0.3738
  26.000   1.3295   0.30613   0.30510  -0.2189  0.0075  0.6737  -6.7985   0.0000   0.0000   0.0000   0.3723
  27.000   1.3690   0.30885   0.30782  -0.2235  0.0088  0.6742  -7.7023   0.0000   0.0000   0.0000   0.3668
  27.500   1.3860   0.31138   0.31036  -0.2266  0.0087  0.6744  -8.0834   0.0000   0.0000   0.0000   0.3650
  28.000   1.4028   0.31385   0.31283  -0.2297  0.0087  0.6745  -8.4735   0.0000   0.0000   0.0000   0.3633
  28.500   1.4166   0.31749   0.31648  -0.2337  0.0086  0.6746  -8.7829   0.0000   0.0000   0.0000   0.3626
  29.000   1.4330   0.31988   0.31888  -0.2368  0.0085  0.6747  -9.1844   0.0000   0.0000   0.0000   0.3608
  29.500   1.4494   0.32209   0.32109  -0.2398  0.0084  0.6747  -9.6013   0.0000   0.0000   0.0000   0.3588
  30.000   1.4656   0.32430   0.32327  -0.2429  0.0082  0.6748  -10.0217   0.0000   0.0000   0.0000   0.3569


